
---------- Begin Simulation Statistics ----------
sim_seconds                                  0.897748                       # Number of seconds simulated
sim_ticks                                897748483500                       # Number of ticks simulated
final_tick                               897748483500                       # Number of ticks from beginning of simulation (restored from checkpoints and never reset)
sim_freq                                 1000000000000                       # Frequency of simulated ticks
host_inst_rate                                 139789                       # Simulator instruction rate (inst/s)
host_op_rate                                   139789                       # Simulator op (including micro ops) rate (op/s)
host_tick_rate                              125494932                       # Simulator tick rate (ticks/s)
host_mem_usage                                 685180                       # Number of bytes of host memory used
host_seconds                                  7153.66                       # Real time elapsed on the host
sim_insts                                  1000000000                       # Number of instructions simulated
sim_ops                                    1000000000                       # Number of ops (including micro ops) simulated
system.voltage_domain.voltage                       1                       # Voltage in Volts
system.clk_domain.clock                          1000                       # Clock period in ticks
system.mem_ctrls.bytes_read::cpu.inst           38528                       # Number of bytes read from this memory
system.mem_ctrls.bytes_read::cpu.data       652008192                       # Number of bytes read from this memory
system.mem_ctrls.bytes_read::total          652046720                       # Number of bytes read from this memory
system.mem_ctrls.bytes_inst_read::cpu.inst        38528                       # Number of instructions bytes read from this memory
system.mem_ctrls.bytes_inst_read::total         38528                       # Number of instructions bytes read from this memory
system.mem_ctrls.bytes_written::writebacks    224615232                       # Number of bytes written to this memory
system.mem_ctrls.bytes_written::total       224615232                       # Number of bytes written to this memory
system.mem_ctrls.num_reads::cpu.inst              602                       # Number of read requests responded to by this memory
system.mem_ctrls.num_reads::cpu.data         10187628                       # Number of read requests responded to by this memory
system.mem_ctrls.num_reads::total            10188230                       # Number of read requests responded to by this memory
system.mem_ctrls.num_writes::writebacks       3509613                       # Number of write requests responded to by this memory
system.mem_ctrls.num_writes::total            3509613                       # Number of write requests responded to by this memory
system.mem_ctrls.bw_read::cpu.inst              42916                       # Total read bandwidth from this memory (bytes/s)
system.mem_ctrls.bw_read::cpu.data          726270447                       # Total read bandwidth from this memory (bytes/s)
system.mem_ctrls.bw_read::total             726313363                       # Total read bandwidth from this memory (bytes/s)
system.mem_ctrls.bw_inst_read::cpu.inst         42916                       # Instruction read bandwidth from this memory (bytes/s)
system.mem_ctrls.bw_inst_read::total            42916                       # Instruction read bandwidth from this memory (bytes/s)
system.mem_ctrls.bw_write::writebacks       250198398                       # Write bandwidth from this memory (bytes/s)
system.mem_ctrls.bw_write::total            250198398                       # Write bandwidth from this memory (bytes/s)
system.mem_ctrls.bw_total::writebacks       250198398                       # Total bandwidth to/from this memory (bytes/s)
system.mem_ctrls.bw_total::cpu.inst             42916                       # Total bandwidth to/from this memory (bytes/s)
system.mem_ctrls.bw_total::cpu.data         726270447                       # Total bandwidth to/from this memory (bytes/s)
system.mem_ctrls.bw_total::total            976511760                       # Total bandwidth to/from this memory (bytes/s)
system.mem_ctrls.readReqs                    10188230                       # Number of read requests accepted
system.mem_ctrls.writeReqs                    3509613                       # Number of write requests accepted
system.mem_ctrls.readBursts                  10188230                       # Number of DRAM read bursts, including those serviced by the write queue
system.mem_ctrls.writeBursts                  3509613                       # Number of DRAM write bursts, including those merged in the write queue
system.mem_ctrls.bytesReadDRAM              648650944                       # Total number of bytes read from DRAM
system.mem_ctrls.bytesReadWrQ                 3395776                       # Total number of bytes read from write queue
system.mem_ctrls.bytesWritten               223386880                       # Total number of bytes written to DRAM
system.mem_ctrls.bytesReadSys               652046720                       # Total read bytes from the system interface side
system.mem_ctrls.bytesWrittenSys            224615232                       # Total written bytes from the system interface side
system.mem_ctrls.servicedByWrQ                  53059                       # Number of DRAM read bursts serviced by the write queue
system.mem_ctrls.mergedWrBursts                 19170                       # Number of DRAM write bursts merged with an existing one
system.mem_ctrls.neitherReadNorWriteReqs            0                       # Number of requests that are neither read nor write
system.mem_ctrls.perBankRdBursts::0            617806                       # Per bank write bursts
system.mem_ctrls.perBankRdBursts::1            635695                       # Per bank write bursts
system.mem_ctrls.perBankRdBursts::2            654109                       # Per bank write bursts
system.mem_ctrls.perBankRdBursts::3            667434                       # Per bank write bursts
system.mem_ctrls.perBankRdBursts::4            646107                       # Per bank write bursts
system.mem_ctrls.perBankRdBursts::5            627484                       # Per bank write bursts
system.mem_ctrls.perBankRdBursts::6            632545                       # Per bank write bursts
system.mem_ctrls.perBankRdBursts::7            647596                       # Per bank write bursts
system.mem_ctrls.perBankRdBursts::8            617552                       # Per bank write bursts
system.mem_ctrls.perBankRdBursts::9            628616                       # Per bank write bursts
system.mem_ctrls.perBankRdBursts::10           640682                       # Per bank write bursts
system.mem_ctrls.perBankRdBursts::11           653168                       # Per bank write bursts
system.mem_ctrls.perBankRdBursts::12           627361                       # Per bank write bursts
system.mem_ctrls.perBankRdBursts::13           634039                       # Per bank write bursts
system.mem_ctrls.perBankRdBursts::14           597120                       # Per bank write bursts
system.mem_ctrls.perBankRdBursts::15           607857                       # Per bank write bursts
system.mem_ctrls.perBankWrBursts::0            220921                       # Per bank write bursts
system.mem_ctrls.perBankWrBursts::1            219964                       # Per bank write bursts
system.mem_ctrls.perBankWrBursts::2            224099                       # Per bank write bursts
system.mem_ctrls.perBankWrBursts::3            223980                       # Per bank write bursts
system.mem_ctrls.perBankWrBursts::4            228665                       # Per bank write bursts
system.mem_ctrls.perBankWrBursts::5            217123                       # Per bank write bursts
system.mem_ctrls.perBankWrBursts::6            213180                       # Per bank write bursts
system.mem_ctrls.perBankWrBursts::7            215702                       # Per bank write bursts
system.mem_ctrls.perBankWrBursts::8            211219                       # Per bank write bursts
system.mem_ctrls.perBankWrBursts::9            216304                       # Per bank write bursts
system.mem_ctrls.perBankWrBursts::10           213824                       # Per bank write bursts
system.mem_ctrls.perBankWrBursts::11           213781                       # Per bank write bursts
system.mem_ctrls.perBankWrBursts::12           216492                       # Per bank write bursts
system.mem_ctrls.perBankWrBursts::13           221592                       # Per bank write bursts
system.mem_ctrls.perBankWrBursts::14           214980                       # Per bank write bursts
system.mem_ctrls.perBankWrBursts::15           218594                       # Per bank write bursts
system.mem_ctrls.numRdRetry                         0                       # Number of times read queue was full causing retry
system.mem_ctrls.numWrRetry                         0                       # Number of times write queue was full causing retry
system.mem_ctrls.totGap                  897748393000                       # Total gap between requests
system.mem_ctrls.readPktSize::0                     0                       # Read request sizes (log2)
system.mem_ctrls.readPktSize::1                     0                       # Read request sizes (log2)
system.mem_ctrls.readPktSize::2                     0                       # Read request sizes (log2)
system.mem_ctrls.readPktSize::3                     0                       # Read request sizes (log2)
system.mem_ctrls.readPktSize::4                     0                       # Read request sizes (log2)
system.mem_ctrls.readPktSize::5                     0                       # Read request sizes (log2)
system.mem_ctrls.readPktSize::6              10188230                       # Read request sizes (log2)
system.mem_ctrls.writePktSize::0                    0                       # Write request sizes (log2)
system.mem_ctrls.writePktSize::1                    0                       # Write request sizes (log2)
system.mem_ctrls.writePktSize::2                    0                       # Write request sizes (log2)
system.mem_ctrls.writePktSize::3                    0                       # Write request sizes (log2)
system.mem_ctrls.writePktSize::4                    0                       # Write request sizes (log2)
system.mem_ctrls.writePktSize::5                    0                       # Write request sizes (log2)
system.mem_ctrls.writePktSize::6              3509613                       # Write request sizes (log2)
system.mem_ctrls.rdQLenPdf::0                 7852906                       # What read queue length does an incoming req see
system.mem_ctrls.rdQLenPdf::1                 1153827                       # What read queue length does an incoming req see
system.mem_ctrls.rdQLenPdf::2                  699675                       # What read queue length does an incoming req see
system.mem_ctrls.rdQLenPdf::3                  428760                       # What read queue length does an incoming req see
system.mem_ctrls.rdQLenPdf::4                       3                       # What read queue length does an incoming req see
system.mem_ctrls.rdQLenPdf::5                       0                       # What read queue length does an incoming req see
system.mem_ctrls.rdQLenPdf::6                       0                       # What read queue length does an incoming req see
system.mem_ctrls.rdQLenPdf::7                       0                       # What read queue length does an incoming req see
system.mem_ctrls.rdQLenPdf::8                       0                       # What read queue length does an incoming req see
system.mem_ctrls.rdQLenPdf::9                       0                       # What read queue length does an incoming req see
system.mem_ctrls.rdQLenPdf::10                      0                       # What read queue length does an incoming req see
system.mem_ctrls.rdQLenPdf::11                      0                       # What read queue length does an incoming req see
system.mem_ctrls.rdQLenPdf::12                      0                       # What read queue length does an incoming req see
system.mem_ctrls.rdQLenPdf::13                      0                       # What read queue length does an incoming req see
system.mem_ctrls.rdQLenPdf::14                      0                       # What read queue length does an incoming req see
system.mem_ctrls.rdQLenPdf::15                      0                       # What read queue length does an incoming req see
system.mem_ctrls.rdQLenPdf::16                      0                       # What read queue length does an incoming req see
system.mem_ctrls.rdQLenPdf::17                      0                       # What read queue length does an incoming req see
system.mem_ctrls.rdQLenPdf::18                      0                       # What read queue length does an incoming req see
system.mem_ctrls.rdQLenPdf::19                      0                       # What read queue length does an incoming req see
system.mem_ctrls.rdQLenPdf::20                      0                       # What read queue length does an incoming req see
system.mem_ctrls.rdQLenPdf::21                      0                       # What read queue length does an incoming req see
system.mem_ctrls.rdQLenPdf::22                      0                       # What read queue length does an incoming req see
system.mem_ctrls.rdQLenPdf::23                      0                       # What read queue length does an incoming req see
system.mem_ctrls.rdQLenPdf::24                      0                       # What read queue length does an incoming req see
system.mem_ctrls.rdQLenPdf::25                      0                       # What read queue length does an incoming req see
system.mem_ctrls.rdQLenPdf::26                      0                       # What read queue length does an incoming req see
system.mem_ctrls.rdQLenPdf::27                      0                       # What read queue length does an incoming req see
system.mem_ctrls.rdQLenPdf::28                      0                       # What read queue length does an incoming req see
system.mem_ctrls.rdQLenPdf::29                      0                       # What read queue length does an incoming req see
system.mem_ctrls.rdQLenPdf::30                      0                       # What read queue length does an incoming req see
system.mem_ctrls.rdQLenPdf::31                      0                       # What read queue length does an incoming req see
system.mem_ctrls.wrQLenPdf::0                       1                       # What write queue length does an incoming req see
system.mem_ctrls.wrQLenPdf::1                       1                       # What write queue length does an incoming req see
system.mem_ctrls.wrQLenPdf::2                       1                       # What write queue length does an incoming req see
system.mem_ctrls.wrQLenPdf::3                       1                       # What write queue length does an incoming req see
system.mem_ctrls.wrQLenPdf::4                       1                       # What write queue length does an incoming req see
system.mem_ctrls.wrQLenPdf::5                       1                       # What write queue length does an incoming req see
system.mem_ctrls.wrQLenPdf::6                       1                       # What write queue length does an incoming req see
system.mem_ctrls.wrQLenPdf::7                       1                       # What write queue length does an incoming req see
system.mem_ctrls.wrQLenPdf::8                       1                       # What write queue length does an incoming req see
system.mem_ctrls.wrQLenPdf::9                       1                       # What write queue length does an incoming req see
system.mem_ctrls.wrQLenPdf::10                      1                       # What write queue length does an incoming req see
system.mem_ctrls.wrQLenPdf::11                      1                       # What write queue length does an incoming req see
system.mem_ctrls.wrQLenPdf::12                      1                       # What write queue length does an incoming req see
system.mem_ctrls.wrQLenPdf::13                      1                       # What write queue length does an incoming req see
system.mem_ctrls.wrQLenPdf::14                      1                       # What write queue length does an incoming req see
system.mem_ctrls.wrQLenPdf::15                   2948                       # What write queue length does an incoming req see
system.mem_ctrls.wrQLenPdf::16                   3299                       # What write queue length does an incoming req see
system.mem_ctrls.wrQLenPdf::17                  72717                       # What write queue length does an incoming req see
system.mem_ctrls.wrQLenPdf::18                 110647                       # What write queue length does an incoming req see
system.mem_ctrls.wrQLenPdf::19                 136461                       # What write queue length does an incoming req see
system.mem_ctrls.wrQLenPdf::20                 210537                       # What write queue length does an incoming req see
system.mem_ctrls.wrQLenPdf::21                 226591                       # What write queue length does an incoming req see
system.mem_ctrls.wrQLenPdf::22                 244952                       # What write queue length does an incoming req see
system.mem_ctrls.wrQLenPdf::23                 280897                       # What write queue length does an incoming req see
system.mem_ctrls.wrQLenPdf::24                 261096                       # What write queue length does an incoming req see
system.mem_ctrls.wrQLenPdf::25                 258019                       # What write queue length does an incoming req see
system.mem_ctrls.wrQLenPdf::26                 254040                       # What write queue length does an incoming req see
system.mem_ctrls.wrQLenPdf::27                 252886                       # What write queue length does an incoming req see
system.mem_ctrls.wrQLenPdf::28                 246167                       # What write queue length does an incoming req see
system.mem_ctrls.wrQLenPdf::29                 234073                       # What write queue length does an incoming req see
system.mem_ctrls.wrQLenPdf::30                 228217                       # What write queue length does an incoming req see
system.mem_ctrls.wrQLenPdf::31                 228544                       # What write queue length does an incoming req see
system.mem_ctrls.wrQLenPdf::32                 232755                       # What write queue length does an incoming req see
system.mem_ctrls.wrQLenPdf::33                   4437                       # What write queue length does an incoming req see
system.mem_ctrls.wrQLenPdf::34                    900                       # What write queue length does an incoming req see
system.mem_ctrls.wrQLenPdf::35                    215                       # What write queue length does an incoming req see
system.mem_ctrls.wrQLenPdf::36                     20                       # What write queue length does an incoming req see
system.mem_ctrls.wrQLenPdf::37                      8                       # What write queue length does an incoming req see
system.mem_ctrls.wrQLenPdf::38                      1                       # What write queue length does an incoming req see
system.mem_ctrls.wrQLenPdf::39                      1                       # What write queue length does an incoming req see
system.mem_ctrls.wrQLenPdf::40                      0                       # What write queue length does an incoming req see
system.mem_ctrls.wrQLenPdf::41                      0                       # What write queue length does an incoming req see
system.mem_ctrls.wrQLenPdf::42                      0                       # What write queue length does an incoming req see
system.mem_ctrls.wrQLenPdf::43                      0                       # What write queue length does an incoming req see
system.mem_ctrls.wrQLenPdf::44                      0                       # What write queue length does an incoming req see
system.mem_ctrls.wrQLenPdf::45                      0                       # What write queue length does an incoming req see
system.mem_ctrls.wrQLenPdf::46                      0                       # What write queue length does an incoming req see
system.mem_ctrls.wrQLenPdf::47                      0                       # What write queue length does an incoming req see
system.mem_ctrls.wrQLenPdf::48                      0                       # What write queue length does an incoming req see
system.mem_ctrls.wrQLenPdf::49                      0                       # What write queue length does an incoming req see
system.mem_ctrls.wrQLenPdf::50                      0                       # What write queue length does an incoming req see
system.mem_ctrls.wrQLenPdf::51                      0                       # What write queue length does an incoming req see
system.mem_ctrls.wrQLenPdf::52                      0                       # What write queue length does an incoming req see
system.mem_ctrls.wrQLenPdf::53                      0                       # What write queue length does an incoming req see
system.mem_ctrls.wrQLenPdf::54                      0                       # What write queue length does an incoming req see
system.mem_ctrls.wrQLenPdf::55                      0                       # What write queue length does an incoming req see
system.mem_ctrls.wrQLenPdf::56                      0                       # What write queue length does an incoming req see
system.mem_ctrls.wrQLenPdf::57                      0                       # What write queue length does an incoming req see
system.mem_ctrls.wrQLenPdf::58                      0                       # What write queue length does an incoming req see
system.mem_ctrls.wrQLenPdf::59                      0                       # What write queue length does an incoming req see
system.mem_ctrls.wrQLenPdf::60                      0                       # What write queue length does an incoming req see
system.mem_ctrls.wrQLenPdf::61                      0                       # What write queue length does an incoming req see
system.mem_ctrls.wrQLenPdf::62                      0                       # What write queue length does an incoming req see
system.mem_ctrls.wrQLenPdf::63                      0                       # What write queue length does an incoming req see
system.mem_ctrls.bytesPerActivate::samples      7879298                       # Bytes accessed per row activation
system.mem_ctrls.bytesPerActivate::mean    110.674461                       # Bytes accessed per row activation
system.mem_ctrls.bytesPerActivate::gmean    83.422703                       # Bytes accessed per row activation
system.mem_ctrls.bytesPerActivate::stdev   145.674801                       # Bytes accessed per row activation
system.mem_ctrls.bytesPerActivate::0-127      6093389     77.33%     77.33% # Bytes accessed per row activation
system.mem_ctrls.bytesPerActivate::128-255      1205622     15.30%     92.64% # Bytes accessed per row activation
system.mem_ctrls.bytesPerActivate::256-383       223639      2.84%     95.47% # Bytes accessed per row activation
system.mem_ctrls.bytesPerActivate::384-511        72155      0.92%     96.39% # Bytes accessed per row activation
system.mem_ctrls.bytesPerActivate::512-639        54660      0.69%     97.08% # Bytes accessed per row activation
system.mem_ctrls.bytesPerActivate::640-767       103515      1.31%     98.40% # Bytes accessed per row activation
system.mem_ctrls.bytesPerActivate::768-895        12922      0.16%     98.56% # Bytes accessed per row activation
system.mem_ctrls.bytesPerActivate::896-1023         7712      0.10%     98.66% # Bytes accessed per row activation
system.mem_ctrls.bytesPerActivate::1024-1151       105684      1.34%    100.00% # Bytes accessed per row activation
system.mem_ctrls.bytesPerActivate::total      7879298                       # Bytes accessed per row activation
system.mem_ctrls.rdPerTurnAround::samples       217638                       # Reads before turning the bus around for writes
system.mem_ctrls.rdPerTurnAround::mean      46.568582                       # Reads before turning the bus around for writes
system.mem_ctrls.rdPerTurnAround::gmean     19.154760                       # Reads before turning the bus around for writes
system.mem_ctrls.rdPerTurnAround::stdev   4221.685821                       # Reads before turning the bus around for writes
system.mem_ctrls.rdPerTurnAround::0-65535       217635    100.00%    100.00% # Reads before turning the bus around for writes
system.mem_ctrls.rdPerTurnAround::917504-983039            1      0.00%    100.00% # Reads before turning the bus around for writes
system.mem_ctrls.rdPerTurnAround::1.04858e+06-1.11411e+06            1      0.00%    100.00% # Reads before turning the bus around for writes
system.mem_ctrls.rdPerTurnAround::1.31072e+06-1.37626e+06            1      0.00%    100.00% # Reads before turning the bus around for writes
system.mem_ctrls.rdPerTurnAround::total        217638                       # Reads before turning the bus around for writes
system.mem_ctrls.wrPerTurnAround::samples       217638                       # Writes before turning the bus around for reads
system.mem_ctrls.wrPerTurnAround::mean      16.037732                       # Writes before turning the bus around for reads
system.mem_ctrls.wrPerTurnAround::gmean     16.035390                       # Writes before turning the bus around for reads
system.mem_ctrls.wrPerTurnAround::stdev      0.287525                       # Writes before turning the bus around for reads
system.mem_ctrls.wrPerTurnAround::16           213415     98.06%     98.06% # Writes before turning the bus around for reads
system.mem_ctrls.wrPerTurnAround::17             1026      0.47%     98.53% # Writes before turning the bus around for reads
system.mem_ctrls.wrPerTurnAround::18             2615      1.20%     99.73% # Writes before turning the bus around for reads
system.mem_ctrls.wrPerTurnAround::19              418      0.19%     99.92% # Writes before turning the bus around for reads
system.mem_ctrls.wrPerTurnAround::20              126      0.06%     99.98% # Writes before turning the bus around for reads
system.mem_ctrls.wrPerTurnAround::21               30      0.01%    100.00% # Writes before turning the bus around for reads
system.mem_ctrls.wrPerTurnAround::22                8      0.00%    100.00% # Writes before turning the bus around for reads
system.mem_ctrls.wrPerTurnAround::total        217638                       # Writes before turning the bus around for reads
system.mem_ctrls.totQLat                 215261098250                       # Total ticks spent queuing
system.mem_ctrls.totMemAccLat            405295554500                       # Total ticks spent from burst creation until serviced by the DRAM
system.mem_ctrls.totBusLat                50675855000                       # Total ticks spent in databus transfers
system.mem_ctrls.avgQLat                     21239.02                       # Average queueing delay per DRAM burst
system.mem_ctrls.avgBusLat                    5000.00                       # Average bus latency per DRAM burst
system.mem_ctrls.avgMemAccLat                39989.02                       # Average memory access latency per DRAM burst
system.mem_ctrls.avgRdBW                       722.53                       # Average DRAM read bandwidth in MiByte/s
system.mem_ctrls.avgWrBW                       248.83                       # Average achieved write bandwidth in MiByte/s
system.mem_ctrls.avgRdBWSys                    726.31                       # Average system read bandwidth in MiByte/s
system.mem_ctrls.avgWrBWSys                    250.20                       # Average system write bandwidth in MiByte/s
system.mem_ctrls.peakBW                      12800.00                       # Theoretical peak bandwidth in MiByte/s
system.mem_ctrls.busUtil                         7.59                       # Data bus utilization in percentage
system.mem_ctrls.busUtilRead                     5.64                       # Data bus utilization in percentage for reads
system.mem_ctrls.busUtilWrite                    1.94                       # Data bus utilization in percentage for writes
system.mem_ctrls.avgRdQLen                       1.19                       # Average read queue length when enqueuing
system.mem_ctrls.avgWrQLen                      25.54                       # Average write queue length when enqueuing
system.mem_ctrls.readRowHits                  4631964                       # Number of row buffer hits during reads
system.mem_ctrls.writeRowHits                 1114317                       # Number of row buffer hits during writes
system.mem_ctrls.readRowHitRate                 45.70                       # Row buffer hit rate for reads
system.mem_ctrls.writeRowHitRate                31.92                       # Row buffer hit rate for writes
system.mem_ctrls.avgGap                      65539.40                       # Average gap between requests
system.mem_ctrls.pageHitRate                    42.17                       # Row buffer hit rate, read and write combined
system.mem_ctrls.memoryStateTime::IDLE     3759480500                       # Time in different power states
system.mem_ctrls.memoryStateTime::REF     29977740000                       # Time in different power states
system.mem_ctrls.memoryStateTime::PRE_PDN            0                       # Time in different power states
system.mem_ctrls.memoryStateTime::ACT    864009892000                       # Time in different power states
system.mem_ctrls.memoryStateTime::ACT_PDN            0                       # Time in different power states
system.membus.throughput                    976511760                       # Throughput (bytes/s)
system.membus.trans_dist::ReadReq             7651498                       # Transaction distribution
system.membus.trans_dist::ReadResp            7651498                       # Transaction distribution
system.membus.trans_dist::Writeback           3509613                       # Transaction distribution
system.membus.trans_dist::ReadExReq           2536732                       # Transaction distribution
system.membus.trans_dist::ReadExResp          2536732                       # Transaction distribution
system.membus.pkt_count_system.cpu.icache.mem_side::system.mem_ctrls.port         1204                       # Packet count per connected master and slave (bytes)
system.membus.pkt_count_system.cpu.dcache.mem_side::system.mem_ctrls.port     23884869                       # Packet count per connected master and slave (bytes)
system.membus.pkt_count::total               23886073                       # Packet count per connected master and slave (bytes)
system.membus.tot_pkt_size_system.cpu.icache.mem_side::system.mem_ctrls.port        38528                       # Cumulative packet size per connected master and slave (bytes)
system.membus.tot_pkt_size_system.cpu.dcache.mem_side::system.mem_ctrls.port    876623424                       # Cumulative packet size per connected master and slave (bytes)
system.membus.tot_pkt_size::total           876661952                       # Cumulative packet size per connected master and slave (bytes)
system.membus.data_through_bus              876661952                       # Total data (bytes)
system.membus.snoop_data_through_bus                0                       # Total snoop data (bytes)
system.membus.reqLayer0.occupancy         44595609500                       # Layer occupancy (ticks)
system.membus.reqLayer0.utilization               5.0                       # Layer utilization (%)
system.membus.respLayer1.occupancy            5649998                       # Layer occupancy (ticks)
system.membus.respLayer1.utilization              0.0                       # Layer utilization (%)
system.membus.respLayer2.occupancy        96030681250                       # Layer occupancy (ticks)
system.membus.respLayer2.utilization             10.7                       # Layer utilization (%)
system.cpu_voltage_domain.voltage                   1                       # Voltage in Volts
system.cpu_clk_domain.clock                       500                       # Clock period in ticks
system.cpu.branchPred.lookups               129953125                       # Number of BP lookups
system.cpu.branchPred.condPredicted         119149053                       # Number of conditional branches predicted
system.cpu.branchPred.condIncorrect          17785759                       # Number of conditional branches incorrect
system.cpu.branchPred.BTBLookups             68300899                       # Number of BTB lookups
system.cpu.branchPred.BTBHits                 6989783                       # Number of BTB hits
system.cpu.branchPred.BTBCorrect                    0                       # Number of correct BTB predictions (this stat may not work properly.
system.cpu.branchPred.BTBHitPct             10.233808                       # BTB Hit Percentage
system.cpu.branchPred.usedRAS                    4762                       # Number of times the RAS was used to get a target.
system.cpu.branchPred.RASInCorrect                  0                       # Number of incorrect RAS predictions.
system.cpu.dtb.fetch_hits                           0                       # ITB hits
system.cpu.dtb.fetch_misses                         0                       # ITB misses
system.cpu.dtb.fetch_acv                            0                       # ITB acv
system.cpu.dtb.fetch_accesses                       0                       # ITB accesses
system.cpu.dtb.read_hits                    199359145                       # DTB read hits
system.cpu.dtb.read_misses                    3132733                       # DTB read misses
system.cpu.dtb.read_acv                             0                       # DTB read access violations
system.cpu.dtb.read_accesses                202491878                       # DTB read accesses
system.cpu.dtb.write_hits                    21460834                       # DTB write hits
system.cpu.dtb.write_misses                   1979055                       # DTB write misses
system.cpu.dtb.write_acv                            0                       # DTB write access violations
system.cpu.dtb.write_accesses                23439889                       # DTB write accesses
system.cpu.dtb.data_hits                    220819979                       # DTB hits
system.cpu.dtb.data_misses                    5111788                       # DTB misses
system.cpu.dtb.data_acv                             0                       # DTB access violations
system.cpu.dtb.data_accesses                225931767                       # DTB accesses
system.cpu.itb.fetch_hits                    75355281                       # ITB hits
system.cpu.itb.fetch_misses                        35                       # ITB misses
system.cpu.itb.fetch_acv                            0                       # ITB acv
system.cpu.itb.fetch_accesses                75355316                       # ITB accesses
system.cpu.itb.read_hits                            0                       # DTB read hits
system.cpu.itb.read_misses                          0                       # DTB read misses
system.cpu.itb.read_acv                             0                       # DTB read access violations
system.cpu.itb.read_accesses                        0                       # DTB read accesses
system.cpu.itb.write_hits                           0                       # DTB write hits
system.cpu.itb.write_misses                         0                       # DTB write misses
system.cpu.itb.write_acv                            0                       # DTB write access violations
system.cpu.itb.write_accesses                       0                       # DTB write accesses
system.cpu.itb.data_hits                            0                       # DTB hits
system.cpu.itb.data_misses                          0                       # DTB misses
system.cpu.itb.data_acv                             0                       # DTB access violations
system.cpu.itb.data_accesses                        0                       # DTB accesses
system.cpu.workload.num_syscalls                   28                       # Number of system calls
system.cpu.numCycles                       1795496968                       # number of cpu cycles simulated
system.cpu.numWorkItemsStarted                      0                       # number of work items this cpu started
system.cpu.numWorkItemsCompleted                    0                       # number of work items this cpu completed
system.cpu.branch_predictor.predictedTaken     24556376                       # Number of Branches Predicted As Taken (True).
system.cpu.branch_predictor.predictedNotTaken    105396749                       # Number of Branches Predicted As Not Taken (False).
system.cpu.regfile_manager.intRegFileReads    839636032                       # Number of Reads from Int. Register File
system.cpu.regfile_manager.intRegFileWrites    857627964                       # Number of Writes to Int. Register File
system.cpu.regfile_manager.intRegFileAccesses   1697263996                       # Total Accesses (Read+Write) to the Int. Register File
system.cpu.regfile_manager.floatRegFileReads           65                       # Number of Reads from FP Register File
system.cpu.regfile_manager.floatRegFileWrites           22                       # Number of Writes to FP Register File
system.cpu.regfile_manager.floatRegFileAccesses           87                       # Total Accesses (Read+Write) to the FP Register File
system.cpu.regfile_manager.regForwards      601782881                       # Number of Registers Read Through Forwarding Logic
system.cpu.agen_unit.agens                  226682299                       # Number of Address Generations
system.cpu.execution_unit.predictedTakenIncorrect      5190569                       # Number of Branches Incorrectly Predicted As Taken.
system.cpu.execution_unit.predictedNotTakenIncorrect      7483320                       # Number of Branches Incorrectly Predicted As Not Taken).
system.cpu.execution_unit.mispredicted       12673889                       # Number of Branches Incorrectly Predicted
system.cpu.execution_unit.predicted         103881222                       # Number of Branches Incorrectly Predicted
system.cpu.execution_unit.mispredictPct     10.873731                       # Percentage of Incorrect Branches Predicts
system.cpu.execution_unit.executions        783768141                       # Number of Instructions Executed.
system.cpu.mult_div_unit.multiplies             64731                       # Number of Multipy Operations Executed
system.cpu.mult_div_unit.divides                    0                       # Number of Divide Operations Executed
system.cpu.contextSwitches                          1                       # Number of context switches
system.cpu.threadCycles                     951091196                       # Total Number of Cycles A Thread Was Active in CPU (Per-Thread)
system.cpu.smtCycles                                0                       # Total number of cycles that the CPU was in SMT-mode
system.cpu.timesIdled                         9253269                       # Number of times that the entire CPU went into an idle state and unscheduled itself
system.cpu.idleCycles                      1024760723                       # Number of cycles cpu's stages were not processed
system.cpu.runCycles                        770736245                       # Number of cycles cpu stages are processed.
system.cpu.activity                         42.926068                       # Percentage of cycles cpu is active
system.cpu.comLoads                         198093266                       # Number of Load instructions committed
system.cpu.comStores                         21460488                       # Number of Store instructions committed
system.cpu.comBranches                      115232788                       # Number of Branches instructions committed
system.cpu.comNops                            5675682                       # Number of Nop instructions committed
system.cpu.comNonSpec                              28                       # Number of Non-Speculative instructions committed
system.cpu.comInts                          659537639                       # Number of Integer instructions committed
system.cpu.comFloats                               14                       # Number of Floating Point instructions committed
system.cpu.committedInsts                  1000000000                       # Number of Instructions committed (Per-Thread)
system.cpu.committedOps                    1000000000                       # Number of Ops committed (Per-Thread)
system.cpu.smtCommittedInsts                        0                       # Number of SMT Instructions committed (Per-Thread)
system.cpu.committedInsts_total            1000000000                       # Number of Instructions committed (Total)
system.cpu.cpi                               1.795497                       # CPI: Cycles Per Instruction (Per-Thread)
system.cpu.smt_cpi                                nan                       # CPI: Total SMT-CPI
system.cpu.cpi_total                         1.795497                       # CPI: Total CPI of All Threads
system.cpu.ipc                               0.556949                       # IPC: Instructions Per Cycle (Per-Thread)
system.cpu.smt_ipc                                nan                       # IPC: Total SMT-IPC
system.cpu.ipc_total                         0.556949                       # IPC: Total IPC of All Threads
system.cpu.stage0.idleCycles               1240782494                       # Number of cycles 0 instructions are processed.
system.cpu.stage0.runCycles                 554714474                       # Number of cycles 1+ instructions are processed.
system.cpu.stage0.utilization               30.894760                       # Percentage of cycles stage was utilized (processing insts).
system.cpu.stage1.idleCycles               1276103296                       # Number of cycles 0 instructions are processed.
system.cpu.stage1.runCycles                 519393672                       # Number of cycles 1+ instructions are processed.
system.cpu.stage1.utilization               28.927572                       # Percentage of cycles stage was utilized (processing insts).
system.cpu.stage2.idleCycles               1202843746                       # Number of cycles 0 instructions are processed.
system.cpu.stage2.runCycles                 592653222                       # Number of cycles 1+ instructions are processed.
system.cpu.stage2.utilization               33.007754                       # Percentage of cycles stage was utilized (processing insts).
system.cpu.stage3.idleCycles               1658685028                       # Number of cycles 0 instructions are processed.
system.cpu.stage3.runCycles                 136811940                       # Number of cycles 1+ instructions are processed.
system.cpu.stage3.utilization                7.619725                       # Percentage of cycles stage was utilized (processing insts).
system.cpu.stage4.idleCycles               1201626351                       # Number of cycles 0 instructions are processed.
system.cpu.stage4.runCycles                 593870617                       # Number of cycles 1+ instructions are processed.
system.cpu.stage4.utilization               33.075557                       # Percentage of cycles stage was utilized (processing insts).
system.cpu.icache.tags.replacements               178                       # number of replacements
system.cpu.icache.tags.tagsinuse           415.986903                       # Cycle average of tags in use
system.cpu.icache.tags.total_refs            75354557                       # Total number of references to valid blocks.
system.cpu.icache.tags.sampled_refs               602                       # Sample count of references to valid blocks.
system.cpu.icache.tags.avg_refs          125173.682724                       # Average number of references to valid blocks.
system.cpu.icache.tags.warmup_cycle                 0                       # Cycle when the warmup percentage was hit.
system.cpu.icache.tags.occ_blocks::cpu.inst   415.986903                       # Average occupied blocks per requestor
system.cpu.icache.tags.occ_percent::cpu.inst     0.812474                       # Average percentage of cache occupancy
system.cpu.icache.tags.occ_percent::total     0.812474                       # Average percentage of cache occupancy
system.cpu.icache.tags.occ_task_id_blocks::1024          424                       # Occupied blocks per task id
system.cpu.icache.tags.age_task_id_blocks_1024::4          424                       # Occupied blocks per task id
system.cpu.icache.tags.occ_task_id_percent::1024     0.828125                       # Percentage of cache occupancy per task id
system.cpu.icache.tags.tag_accesses         150711164                       # Number of tag accesses
system.cpu.icache.tags.data_accesses        150711164                       # Number of data accesses
system.cpu.icache.ReadReq_hits::cpu.inst     75354557                       # number of ReadReq hits
system.cpu.icache.ReadReq_hits::total        75354557                       # number of ReadReq hits
system.cpu.icache.demand_hits::cpu.inst      75354557                       # number of demand (read+write) hits
system.cpu.icache.demand_hits::total         75354557                       # number of demand (read+write) hits
system.cpu.icache.overall_hits::cpu.inst     75354557                       # number of overall hits
system.cpu.icache.overall_hits::total        75354557                       # number of overall hits
system.cpu.icache.ReadReq_misses::cpu.inst          724                       # number of ReadReq misses
system.cpu.icache.ReadReq_misses::total           724                       # number of ReadReq misses
system.cpu.icache.demand_misses::cpu.inst          724                       # number of demand (read+write) misses
system.cpu.icache.demand_misses::total            724                       # number of demand (read+write) misses
system.cpu.icache.overall_misses::cpu.inst          724                       # number of overall misses
system.cpu.icache.overall_misses::total           724                       # number of overall misses
system.cpu.icache.ReadReq_miss_latency::cpu.inst     36653248                       # number of ReadReq miss cycles
system.cpu.icache.ReadReq_miss_latency::total     36653248                       # number of ReadReq miss cycles
system.cpu.icache.demand_miss_latency::cpu.inst     36653248                       # number of demand (read+write) miss cycles
system.cpu.icache.demand_miss_latency::total     36653248                       # number of demand (read+write) miss cycles
system.cpu.icache.overall_miss_latency::cpu.inst     36653248                       # number of overall miss cycles
system.cpu.icache.overall_miss_latency::total     36653248                       # number of overall miss cycles
system.cpu.icache.ReadReq_accesses::cpu.inst     75355281                       # number of ReadReq accesses(hits+misses)
system.cpu.icache.ReadReq_accesses::total     75355281                       # number of ReadReq accesses(hits+misses)
system.cpu.icache.demand_accesses::cpu.inst     75355281                       # number of demand (read+write) accesses
system.cpu.icache.demand_accesses::total     75355281                       # number of demand (read+write) accesses
system.cpu.icache.overall_accesses::cpu.inst     75355281                       # number of overall (read+write) accesses
system.cpu.icache.overall_accesses::total     75355281                       # number of overall (read+write) accesses
system.cpu.icache.ReadReq_miss_rate::cpu.inst     0.000010                       # miss rate for ReadReq accesses
system.cpu.icache.ReadReq_miss_rate::total     0.000010                       # miss rate for ReadReq accesses
system.cpu.icache.demand_miss_rate::cpu.inst     0.000010                       # miss rate for demand accesses
system.cpu.icache.demand_miss_rate::total     0.000010                       # miss rate for demand accesses
system.cpu.icache.overall_miss_rate::cpu.inst     0.000010                       # miss rate for overall accesses
system.cpu.icache.overall_miss_rate::total     0.000010                       # miss rate for overall accesses
system.cpu.icache.ReadReq_avg_miss_latency::cpu.inst 50626.033149                       # average ReadReq miss latency
system.cpu.icache.ReadReq_avg_miss_latency::total 50626.033149                       # average ReadReq miss latency
system.cpu.icache.demand_avg_miss_latency::cpu.inst 50626.033149                       # average overall miss latency
system.cpu.icache.demand_avg_miss_latency::total 50626.033149                       # average overall miss latency
system.cpu.icache.overall_avg_miss_latency::cpu.inst 50626.033149                       # average overall miss latency
system.cpu.icache.overall_avg_miss_latency::total 50626.033149                       # average overall miss latency
system.cpu.icache.blocked_cycles::no_mshrs          113                       # number of cycles access was blocked
system.cpu.icache.blocked_cycles::no_targets            0                       # number of cycles access was blocked
system.cpu.icache.blocked::no_mshrs                 2                       # number of cycles access was blocked
system.cpu.icache.blocked::no_targets               0                       # number of cycles access was blocked
system.cpu.icache.avg_blocked_cycles::no_mshrs    56.500000                       # average number of cycles each access was blocked
system.cpu.icache.avg_blocked_cycles::no_targets          nan                       # average number of cycles each access was blocked
system.cpu.icache.fast_writes                       0                       # number of fast writes performed
system.cpu.icache.cache_copies                      0                       # number of cache copies performed
system.cpu.icache.ReadReq_mshr_hits::cpu.inst          122                       # number of ReadReq MSHR hits
system.cpu.icache.ReadReq_mshr_hits::total          122                       # number of ReadReq MSHR hits
system.cpu.icache.demand_mshr_hits::cpu.inst          122                       # number of demand (read+write) MSHR hits
system.cpu.icache.demand_mshr_hits::total          122                       # number of demand (read+write) MSHR hits
system.cpu.icache.overall_mshr_hits::cpu.inst          122                       # number of overall MSHR hits
system.cpu.icache.overall_mshr_hits::total          122                       # number of overall MSHR hits
system.cpu.icache.ReadReq_mshr_misses::cpu.inst          602                       # number of ReadReq MSHR misses
system.cpu.icache.ReadReq_mshr_misses::total          602                       # number of ReadReq MSHR misses
system.cpu.icache.demand_mshr_misses::cpu.inst          602                       # number of demand (read+write) MSHR misses
system.cpu.icache.demand_mshr_misses::total          602                       # number of demand (read+write) MSHR misses
system.cpu.icache.overall_mshr_misses::cpu.inst          602                       # number of overall MSHR misses
system.cpu.icache.overall_mshr_misses::total          602                       # number of overall MSHR misses
system.cpu.icache.ReadReq_mshr_miss_latency::cpu.inst     29657502                       # number of ReadReq MSHR miss cycles
system.cpu.icache.ReadReq_mshr_miss_latency::total     29657502                       # number of ReadReq MSHR miss cycles
system.cpu.icache.demand_mshr_miss_latency::cpu.inst     29657502                       # number of demand (read+write) MSHR miss cycles
system.cpu.icache.demand_mshr_miss_latency::total     29657502                       # number of demand (read+write) MSHR miss cycles
system.cpu.icache.overall_mshr_miss_latency::cpu.inst     29657502                       # number of overall MSHR miss cycles
system.cpu.icache.overall_mshr_miss_latency::total     29657502                       # number of overall MSHR miss cycles
system.cpu.icache.ReadReq_mshr_miss_rate::cpu.inst     0.000008                       # mshr miss rate for ReadReq accesses
system.cpu.icache.ReadReq_mshr_miss_rate::total     0.000008                       # mshr miss rate for ReadReq accesses
system.cpu.icache.demand_mshr_miss_rate::cpu.inst     0.000008                       # mshr miss rate for demand accesses
system.cpu.icache.demand_mshr_miss_rate::total     0.000008                       # mshr miss rate for demand accesses
system.cpu.icache.overall_mshr_miss_rate::cpu.inst     0.000008                       # mshr miss rate for overall accesses
system.cpu.icache.overall_mshr_miss_rate::total     0.000008                       # mshr miss rate for overall accesses
system.cpu.icache.ReadReq_avg_mshr_miss_latency::cpu.inst 49264.953488                       # average ReadReq mshr miss latency
system.cpu.icache.ReadReq_avg_mshr_miss_latency::total 49264.953488                       # average ReadReq mshr miss latency
system.cpu.icache.demand_avg_mshr_miss_latency::cpu.inst 49264.953488                       # average overall mshr miss latency
system.cpu.icache.demand_avg_mshr_miss_latency::total 49264.953488                       # average overall mshr miss latency
system.cpu.icache.overall_avg_mshr_miss_latency::cpu.inst 49264.953488                       # average overall mshr miss latency
system.cpu.icache.overall_avg_mshr_miss_latency::total 49264.953488                       # average overall mshr miss latency
system.cpu.icache.no_allocate_misses                0                       # Number of misses that were no-allocate
system.cpu.dcache.tags.replacements          10186604                       # number of replacements
system.cpu.dcache.tags.tagsinuse          1023.847963                       # Cycle average of tags in use
system.cpu.dcache.tags.total_refs           209163130                       # Total number of references to valid blocks.
system.cpu.dcache.tags.sampled_refs          10187628                       # Sample count of references to valid blocks.
system.cpu.dcache.tags.avg_refs             20.531092                       # Average number of references to valid blocks.
system.cpu.dcache.tags.warmup_cycle         187452000                       # Cycle when the warmup percentage was hit.
system.cpu.dcache.tags.occ_blocks::cpu.data  1023.847963                       # Average occupied blocks per requestor
system.cpu.dcache.tags.occ_percent::cpu.data     0.999852                       # Average percentage of cache occupancy
system.cpu.dcache.tags.occ_percent::total     0.999852                       # Average percentage of cache occupancy
system.cpu.dcache.tags.occ_task_id_blocks::1024         1024                       # Occupied blocks per task id
system.cpu.dcache.tags.age_task_id_blocks_1024::0           96                       # Occupied blocks per task id
system.cpu.dcache.tags.age_task_id_blocks_1024::1          634                       # Occupied blocks per task id
system.cpu.dcache.tags.age_task_id_blocks_1024::2          291                       # Occupied blocks per task id
system.cpu.dcache.tags.age_task_id_blocks_1024::4            3                       # Occupied blocks per task id
system.cpu.dcache.tags.occ_task_id_percent::1024            1                       # Percentage of cache occupancy per task id
system.cpu.dcache.tags.tag_accesses         449295136                       # Number of tag accesses
system.cpu.dcache.tags.data_accesses        449295136                       # Number of data accesses
system.cpu.dcache.ReadReq_hits::cpu.data    190426533                       # number of ReadReq hits
system.cpu.dcache.ReadReq_hits::total       190426533                       # number of ReadReq hits
system.cpu.dcache.WriteReq_hits::cpu.data     18736521                       # number of WriteReq hits
system.cpu.dcache.WriteReq_hits::total       18736521                       # number of WriteReq hits
system.cpu.dcache.LoadLockedReq_hits::cpu.data           36                       # number of LoadLockedReq hits
system.cpu.dcache.LoadLockedReq_hits::total           36                       # number of LoadLockedReq hits
system.cpu.dcache.StoreCondReq_hits::cpu.data           40                       # number of StoreCondReq hits
system.cpu.dcache.StoreCondReq_hits::total           40                       # number of StoreCondReq hits
system.cpu.dcache.demand_hits::cpu.data     209163054                       # number of demand (read+write) hits
system.cpu.dcache.demand_hits::total        209163054                       # number of demand (read+write) hits
system.cpu.dcache.overall_hits::cpu.data    209163054                       # number of overall hits
system.cpu.dcache.overall_hits::total       209163054                       # number of overall hits
system.cpu.dcache.ReadReq_misses::cpu.data      7666693                       # number of ReadReq misses
system.cpu.dcache.ReadReq_misses::total       7666693                       # number of ReadReq misses
system.cpu.dcache.WriteReq_misses::cpu.data      2723927                       # number of WriteReq misses
system.cpu.dcache.WriteReq_misses::total      2723927                       # number of WriteReq misses
system.cpu.dcache.LoadLockedReq_misses::cpu.data            4                       # number of LoadLockedReq misses
system.cpu.dcache.LoadLockedReq_misses::total            4                       # number of LoadLockedReq misses
system.cpu.dcache.demand_misses::cpu.data     10390620                       # number of demand (read+write) misses
system.cpu.dcache.demand_misses::total       10390620                       # number of demand (read+write) misses
system.cpu.dcache.overall_misses::cpu.data     10390620                       # number of overall misses
system.cpu.dcache.overall_misses::total      10390620                       # number of overall misses
system.cpu.dcache.ReadReq_miss_latency::cpu.data 448443572250                       # number of ReadReq miss cycles
system.cpu.dcache.ReadReq_miss_latency::total 448443572250                       # number of ReadReq miss cycles
system.cpu.dcache.WriteReq_miss_latency::cpu.data 230093372750                       # number of WriteReq miss cycles
system.cpu.dcache.WriteReq_miss_latency::total 230093372750                       # number of WriteReq miss cycles
system.cpu.dcache.LoadLockedReq_miss_latency::cpu.data       327250                       # number of LoadLockedReq miss cycles
system.cpu.dcache.LoadLockedReq_miss_latency::total       327250                       # number of LoadLockedReq miss cycles
system.cpu.dcache.demand_miss_latency::cpu.data 678536945000                       # number of demand (read+write) miss cycles
system.cpu.dcache.demand_miss_latency::total 678536945000                       # number of demand (read+write) miss cycles
system.cpu.dcache.overall_miss_latency::cpu.data 678536945000                       # number of overall miss cycles
system.cpu.dcache.overall_miss_latency::total 678536945000                       # number of overall miss cycles
system.cpu.dcache.ReadReq_accesses::cpu.data    198093226                       # number of ReadReq accesses(hits+misses)
system.cpu.dcache.ReadReq_accesses::total    198093226                       # number of ReadReq accesses(hits+misses)
system.cpu.dcache.WriteReq_accesses::cpu.data     21460448                       # number of WriteReq accesses(hits+misses)
system.cpu.dcache.WriteReq_accesses::total     21460448                       # number of WriteReq accesses(hits+misses)
system.cpu.dcache.LoadLockedReq_accesses::cpu.data           40                       # number of LoadLockedReq accesses(hits+misses)
system.cpu.dcache.LoadLockedReq_accesses::total           40                       # number of LoadLockedReq accesses(hits+misses)
system.cpu.dcache.StoreCondReq_accesses::cpu.data           40                       # number of StoreCondReq accesses(hits+misses)
system.cpu.dcache.StoreCondReq_accesses::total           40                       # number of StoreCondReq accesses(hits+misses)
system.cpu.dcache.demand_accesses::cpu.data    219553674                       # number of demand (read+write) accesses
system.cpu.dcache.demand_accesses::total    219553674                       # number of demand (read+write) accesses
system.cpu.dcache.overall_accesses::cpu.data    219553674                       # number of overall (read+write) accesses
system.cpu.dcache.overall_accesses::total    219553674                       # number of overall (read+write) accesses
system.cpu.dcache.ReadReq_miss_rate::cpu.data     0.038702                       # miss rate for ReadReq accesses
system.cpu.dcache.ReadReq_miss_rate::total     0.038702                       # miss rate for ReadReq accesses
system.cpu.dcache.WriteReq_miss_rate::cpu.data     0.126928                       # miss rate for WriteReq accesses
system.cpu.dcache.WriteReq_miss_rate::total     0.126928                       # miss rate for WriteReq accesses
system.cpu.dcache.LoadLockedReq_miss_rate::cpu.data     0.100000                       # miss rate for LoadLockedReq accesses
system.cpu.dcache.LoadLockedReq_miss_rate::total     0.100000                       # miss rate for LoadLockedReq accesses
system.cpu.dcache.demand_miss_rate::cpu.data     0.047326                       # miss rate for demand accesses
system.cpu.dcache.demand_miss_rate::total     0.047326                       # miss rate for demand accesses
system.cpu.dcache.overall_miss_rate::cpu.data     0.047326                       # miss rate for overall accesses
system.cpu.dcache.overall_miss_rate::total     0.047326                       # miss rate for overall accesses
system.cpu.dcache.ReadReq_avg_miss_latency::cpu.data 58492.438950                       # average ReadReq miss latency
system.cpu.dcache.ReadReq_avg_miss_latency::total 58492.438950                       # average ReadReq miss latency
system.cpu.dcache.WriteReq_avg_miss_latency::cpu.data 84471.196456                       # average WriteReq miss latency
system.cpu.dcache.WriteReq_avg_miss_latency::total 84471.196456                       # average WriteReq miss latency
system.cpu.dcache.LoadLockedReq_avg_miss_latency::cpu.data 81812.500000                       # average LoadLockedReq miss latency
system.cpu.dcache.LoadLockedReq_avg_miss_latency::total 81812.500000                       # average LoadLockedReq miss latency
system.cpu.dcache.demand_avg_miss_latency::cpu.data 65302.835153                       # average overall miss latency
system.cpu.dcache.demand_avg_miss_latency::total 65302.835153                       # average overall miss latency
system.cpu.dcache.overall_avg_miss_latency::cpu.data 65302.835153                       # average overall miss latency
system.cpu.dcache.overall_avg_miss_latency::total 65302.835153                       # average overall miss latency
system.cpu.dcache.blocked_cycles::no_mshrs     62011015                       # number of cycles access was blocked
system.cpu.dcache.blocked_cycles::no_targets          371                       # number of cycles access was blocked
system.cpu.dcache.blocked::no_mshrs           1606830                       # number of cycles access was blocked
system.cpu.dcache.blocked::no_targets               9                       # number of cycles access was blocked
system.cpu.dcache.avg_blocked_cycles::no_mshrs    38.592144                       # average number of cycles each access was blocked
system.cpu.dcache.avg_blocked_cycles::no_targets    41.222222                       # average number of cycles each access was blocked
system.cpu.dcache.fast_writes                       0                       # number of fast writes performed
system.cpu.dcache.cache_copies                      0                       # number of cache copies performed
system.cpu.dcache.writebacks::writebacks      3509613                       # number of writebacks
system.cpu.dcache.writebacks::total           3509613                       # number of writebacks
system.cpu.dcache.ReadReq_mshr_hits::cpu.data        15716                       # number of ReadReq MSHR hits
system.cpu.dcache.ReadReq_mshr_hits::total        15716                       # number of ReadReq MSHR hits
system.cpu.dcache.WriteReq_mshr_hits::cpu.data       187280                       # number of WriteReq MSHR hits
system.cpu.dcache.WriteReq_mshr_hits::total       187280                       # number of WriteReq MSHR hits
system.cpu.dcache.demand_mshr_hits::cpu.data       202996                       # number of demand (read+write) MSHR hits
system.cpu.dcache.demand_mshr_hits::total       202996                       # number of demand (read+write) MSHR hits
system.cpu.dcache.overall_mshr_hits::cpu.data       202996                       # number of overall MSHR hits
system.cpu.dcache.overall_mshr_hits::total       202996                       # number of overall MSHR hits
system.cpu.dcache.ReadReq_mshr_misses::cpu.data      7650977                       # number of ReadReq MSHR misses
system.cpu.dcache.ReadReq_mshr_misses::total      7650977                       # number of ReadReq MSHR misses
system.cpu.dcache.WriteReq_mshr_misses::cpu.data      2536647                       # number of WriteReq MSHR misses
system.cpu.dcache.WriteReq_mshr_misses::total      2536647                       # number of WriteReq MSHR misses
system.cpu.dcache.LoadLockedReq_mshr_misses::cpu.data            4                       # number of LoadLockedReq MSHR misses
system.cpu.dcache.LoadLockedReq_mshr_misses::total            4                       # number of LoadLockedReq MSHR misses
system.cpu.dcache.demand_mshr_misses::cpu.data     10187624                       # number of demand (read+write) MSHR misses
system.cpu.dcache.demand_mshr_misses::total     10187624                       # number of demand (read+write) MSHR misses
system.cpu.dcache.overall_mshr_misses::cpu.data     10187624                       # number of overall MSHR misses
system.cpu.dcache.overall_mshr_misses::total     10187624                       # number of overall MSHR misses
system.cpu.dcache.ReadReq_mshr_miss_latency::cpu.data 419766364000                       # number of ReadReq MSHR miss cycles
system.cpu.dcache.ReadReq_mshr_miss_latency::total 419766364000                       # number of ReadReq MSHR miss cycles
system.cpu.dcache.WriteReq_mshr_miss_latency::cpu.data 210609058000                       # number of WriteReq MSHR miss cycles
system.cpu.dcache.WriteReq_mshr_miss_latency::total 210609058000                       # number of WriteReq MSHR miss cycles
system.cpu.dcache.LoadLockedReq_mshr_miss_latency::cpu.data       313750                       # number of LoadLockedReq MSHR miss cycles
system.cpu.dcache.LoadLockedReq_mshr_miss_latency::total       313750                       # number of LoadLockedReq MSHR miss cycles
system.cpu.dcache.demand_mshr_miss_latency::cpu.data 630375422000                       # number of demand (read+write) MSHR miss cycles
system.cpu.dcache.demand_mshr_miss_latency::total 630375422000                       # number of demand (read+write) MSHR miss cycles
system.cpu.dcache.overall_mshr_miss_latency::cpu.data 630375422000                       # number of overall MSHR miss cycles
system.cpu.dcache.overall_mshr_miss_latency::total 630375422000                       # number of overall MSHR miss cycles
system.cpu.dcache.ReadReq_mshr_miss_rate::cpu.data     0.038623                       # mshr miss rate for ReadReq accesses
system.cpu.dcache.ReadReq_mshr_miss_rate::total     0.038623                       # mshr miss rate for ReadReq accesses
system.cpu.dcache.WriteReq_mshr_miss_rate::cpu.data     0.118201                       # mshr miss rate for WriteReq accesses
system.cpu.dcache.WriteReq_mshr_miss_rate::total     0.118201                       # mshr miss rate for WriteReq accesses
system.cpu.dcache.LoadLockedReq_mshr_miss_rate::cpu.data     0.100000                       # mshr miss rate for LoadLockedReq accesses
system.cpu.dcache.LoadLockedReq_mshr_miss_rate::total     0.100000                       # mshr miss rate for LoadLockedReq accesses
system.cpu.dcache.demand_mshr_miss_rate::cpu.data     0.046402                       # mshr miss rate for demand accesses
system.cpu.dcache.demand_mshr_miss_rate::total     0.046402                       # mshr miss rate for demand accesses
system.cpu.dcache.overall_mshr_miss_rate::cpu.data     0.046402                       # mshr miss rate for overall accesses
system.cpu.dcache.overall_mshr_miss_rate::total     0.046402                       # mshr miss rate for overall accesses
system.cpu.dcache.ReadReq_avg_mshr_miss_latency::cpu.data 54864.413264                       # average ReadReq mshr miss latency
system.cpu.dcache.ReadReq_avg_mshr_miss_latency::total 54864.413264                       # average ReadReq mshr miss latency
system.cpu.dcache.WriteReq_avg_mshr_miss_latency::cpu.data 83026.553557                       # average WriteReq mshr miss latency
system.cpu.dcache.WriteReq_avg_mshr_miss_latency::total 83026.553557                       # average WriteReq mshr miss latency
system.cpu.dcache.LoadLockedReq_avg_mshr_miss_latency::cpu.data 78437.500000                       # average LoadLockedReq mshr miss latency
system.cpu.dcache.LoadLockedReq_avg_mshr_miss_latency::total 78437.500000                       # average LoadLockedReq mshr miss latency
system.cpu.dcache.demand_avg_mshr_miss_latency::cpu.data 61876.588889                       # average overall mshr miss latency
system.cpu.dcache.demand_avg_mshr_miss_latency::total 61876.588889                       # average overall mshr miss latency
system.cpu.dcache.overall_avg_mshr_miss_latency::cpu.data 61876.588889                       # average overall mshr miss latency
system.cpu.dcache.overall_avg_mshr_miss_latency::total 61876.588889                       # average overall mshr miss latency
system.cpu.dcache.no_allocate_misses                0                       # Number of misses that were no-allocate

---------- End Simulation Statistics   ----------
