
---------- Begin Simulation Statistics ----------
sim_seconds                                  0.763062                       # Number of seconds simulated
sim_ticks                                763061700000                       # Number of ticks simulated
final_tick                               763061700000                       # Number of ticks from beginning of simulation (restored from checkpoints and never reset)
sim_freq                                 1000000000000                       # Frequency of simulated ticks
host_inst_rate                                 136153                       # Simulator instruction rate (inst/s)
host_op_rate                                   136153                       # Simulator op (including micro ops) rate (op/s)
host_tick_rate                              103893014                       # Simulator tick rate (ticks/s)
host_mem_usage                                 694392                       # Number of bytes of host memory used
host_seconds                                  7344.69                       # Real time elapsed on the host
sim_insts                                  1000000001                       # Number of instructions simulated
sim_ops                                    1000000001                       # Number of ops (including micro ops) simulated
system.voltage_domain.voltage                       1                       # Voltage in Volts
system.clk_domain.clock                          1000                       # Clock period in ticks
system.mem_ctrls.bytes_read::cpu.inst           58496                       # Number of bytes read from this memory
system.mem_ctrls.bytes_read::cpu.data       495284096                       # Number of bytes read from this memory
system.mem_ctrls.bytes_read::total          495342592                       # Number of bytes read from this memory
system.mem_ctrls.bytes_inst_read::cpu.inst        58496                       # Number of instructions bytes read from this memory
system.mem_ctrls.bytes_inst_read::total         58496                       # Number of instructions bytes read from this memory
system.mem_ctrls.bytes_written::writebacks    292073344                       # Number of bytes written to this memory
system.mem_ctrls.bytes_written::total       292073344                       # Number of bytes written to this memory
system.mem_ctrls.num_reads::cpu.inst              914                       # Number of read requests responded to by this memory
system.mem_ctrls.num_reads::cpu.data          7738814                       # Number of read requests responded to by this memory
system.mem_ctrls.num_reads::total             7739728                       # Number of read requests responded to by this memory
system.mem_ctrls.num_writes::writebacks       4563646                       # Number of write requests responded to by this memory
system.mem_ctrls.num_writes::total            4563646                       # Number of write requests responded to by this memory
system.mem_ctrls.bw_read::cpu.inst              76660                       # Total read bandwidth from this memory (bytes/s)
system.mem_ctrls.bw_read::cpu.data          649074768                       # Total read bandwidth from this memory (bytes/s)
system.mem_ctrls.bw_read::total             649151428                       # Total read bandwidth from this memory (bytes/s)
system.mem_ctrls.bw_inst_read::cpu.inst         76660                       # Instruction read bandwidth from this memory (bytes/s)
system.mem_ctrls.bw_inst_read::total            76660                       # Instruction read bandwidth from this memory (bytes/s)
system.mem_ctrls.bw_write::writebacks       382765042                       # Write bandwidth from this memory (bytes/s)
system.mem_ctrls.bw_write::total            382765042                       # Write bandwidth from this memory (bytes/s)
system.mem_ctrls.bw_total::writebacks       382765042                       # Total bandwidth to/from this memory (bytes/s)
system.mem_ctrls.bw_total::cpu.inst             76660                       # Total bandwidth to/from this memory (bytes/s)
system.mem_ctrls.bw_total::cpu.data         649074768                       # Total bandwidth to/from this memory (bytes/s)
system.mem_ctrls.bw_total::total           1031916470                       # Total bandwidth to/from this memory (bytes/s)
system.mem_ctrls.readReqs                     7739728                       # Number of read requests accepted
system.mem_ctrls.writeReqs                    4563646                       # Number of write requests accepted
system.mem_ctrls.readBursts                   7739728                       # Number of DRAM read bursts, including those serviced by the write queue
system.mem_ctrls.writeBursts                  4563646                       # Number of DRAM write bursts, including those merged in the write queue
system.mem_ctrls.bytesReadDRAM              492758848                       # Total number of bytes read from DRAM
system.mem_ctrls.bytesReadWrQ                 2583744                       # Total number of bytes read from write queue
system.mem_ctrls.bytesWritten               291855040                       # Total number of bytes written to DRAM
system.mem_ctrls.bytesReadSys               495342592                       # Total read bytes from the system interface side
system.mem_ctrls.bytesWrittenSys            292073344                       # Total written bytes from the system interface side
system.mem_ctrls.servicedByWrQ                  40371                       # Number of DRAM read bursts serviced by the write queue
system.mem_ctrls.mergedWrBursts                  3396                       # Number of DRAM write bursts merged with an existing one
system.mem_ctrls.neitherReadNorWriteReqs            0                       # Number of requests that are neither read nor write
system.mem_ctrls.perBankRdBursts::0            454324                       # Per bank write bursts
system.mem_ctrls.perBankRdBursts::1            491915                       # Per bank write bursts
system.mem_ctrls.perBankRdBursts::2            490481                       # Per bank write bursts
system.mem_ctrls.perBankRdBursts::3            488833                       # Per bank write bursts
system.mem_ctrls.perBankRdBursts::4            494605                       # Per bank write bursts
system.mem_ctrls.perBankRdBursts::5            496517                       # Per bank write bursts
system.mem_ctrls.perBankRdBursts::6            477884                       # Per bank write bursts
system.mem_ctrls.perBankRdBursts::7            500496                       # Per bank write bursts
system.mem_ctrls.perBankRdBursts::8            472005                       # Per bank write bursts
system.mem_ctrls.perBankRdBursts::9            485649                       # Per bank write bursts
system.mem_ctrls.perBankRdBursts::10           470730                       # Per bank write bursts
system.mem_ctrls.perBankRdBursts::11           484526                       # Per bank write bursts
system.mem_ctrls.perBankRdBursts::12           482763                       # Per bank write bursts
system.mem_ctrls.perBankRdBursts::13           496702                       # Per bank write bursts
system.mem_ctrls.perBankRdBursts::14           451071                       # Per bank write bursts
system.mem_ctrls.perBankRdBursts::15           460856                       # Per bank write bursts
system.mem_ctrls.perBankWrBursts::0            287474                       # Per bank write bursts
system.mem_ctrls.perBankWrBursts::1            289213                       # Per bank write bursts
system.mem_ctrls.perBankWrBursts::2            288416                       # Per bank write bursts
system.mem_ctrls.perBankWrBursts::3            286256                       # Per bank write bursts
system.mem_ctrls.perBankWrBursts::4            292822                       # Per bank write bursts
system.mem_ctrls.perBankWrBursts::5            292434                       # Per bank write bursts
system.mem_ctrls.perBankWrBursts::6            277525                       # Per bank write bursts
system.mem_ctrls.perBankWrBursts::7            297037                       # Per bank write bursts
system.mem_ctrls.perBankWrBursts::8            271655                       # Per bank write bursts
system.mem_ctrls.perBankWrBursts::9            281664                       # Per bank write bursts
system.mem_ctrls.perBankWrBursts::10           269182                       # Per bank write bursts
system.mem_ctrls.perBankWrBursts::11           282302                       # Per bank write bursts
system.mem_ctrls.perBankWrBursts::12           279836                       # Per bank write bursts
system.mem_ctrls.perBankWrBursts::13           290792                       # Per bank write bursts
system.mem_ctrls.perBankWrBursts::14           282190                       # Per bank write bursts
system.mem_ctrls.perBankWrBursts::15           291437                       # Per bank write bursts
system.mem_ctrls.numRdRetry                         0                       # Number of times read queue was full causing retry
system.mem_ctrls.numWrRetry                         0                       # Number of times write queue was full causing retry
system.mem_ctrls.totGap                  763061471000                       # Total gap between requests
system.mem_ctrls.readPktSize::0                     0                       # Read request sizes (log2)
system.mem_ctrls.readPktSize::1                     0                       # Read request sizes (log2)
system.mem_ctrls.readPktSize::2                     0                       # Read request sizes (log2)
system.mem_ctrls.readPktSize::3                     0                       # Read request sizes (log2)
system.mem_ctrls.readPktSize::4                     0                       # Read request sizes (log2)
system.mem_ctrls.readPktSize::5                     0                       # Read request sizes (log2)
system.mem_ctrls.readPktSize::6               7739728                       # Read request sizes (log2)
system.mem_ctrls.writePktSize::0                    0                       # Write request sizes (log2)
system.mem_ctrls.writePktSize::1                    0                       # Write request sizes (log2)
system.mem_ctrls.writePktSize::2                    0                       # Write request sizes (log2)
system.mem_ctrls.writePktSize::3                    0                       # Write request sizes (log2)
system.mem_ctrls.writePktSize::4                    0                       # Write request sizes (log2)
system.mem_ctrls.writePktSize::5                    0                       # Write request sizes (log2)
system.mem_ctrls.writePktSize::6              4563646                       # Write request sizes (log2)
system.mem_ctrls.rdQLenPdf::0                 4945843                       # What read queue length does an incoming req see
system.mem_ctrls.rdQLenPdf::1                 1991499                       # What read queue length does an incoming req see
system.mem_ctrls.rdQLenPdf::2                  496827                       # What read queue length does an incoming req see
system.mem_ctrls.rdQLenPdf::3                  265181                       # What read queue length does an incoming req see
system.mem_ctrls.rdQLenPdf::4                       7                       # What read queue length does an incoming req see
system.mem_ctrls.rdQLenPdf::5                       0                       # What read queue length does an incoming req see
system.mem_ctrls.rdQLenPdf::6                       0                       # What read queue length does an incoming req see
system.mem_ctrls.rdQLenPdf::7                       0                       # What read queue length does an incoming req see
system.mem_ctrls.rdQLenPdf::8                       0                       # What read queue length does an incoming req see
system.mem_ctrls.rdQLenPdf::9                       0                       # What read queue length does an incoming req see
system.mem_ctrls.rdQLenPdf::10                      0                       # What read queue length does an incoming req see
system.mem_ctrls.rdQLenPdf::11                      0                       # What read queue length does an incoming req see
system.mem_ctrls.rdQLenPdf::12                      0                       # What read queue length does an incoming req see
system.mem_ctrls.rdQLenPdf::13                      0                       # What read queue length does an incoming req see
system.mem_ctrls.rdQLenPdf::14                      0                       # What read queue length does an incoming req see
system.mem_ctrls.rdQLenPdf::15                      0                       # What read queue length does an incoming req see
system.mem_ctrls.rdQLenPdf::16                      0                       # What read queue length does an incoming req see
system.mem_ctrls.rdQLenPdf::17                      0                       # What read queue length does an incoming req see
system.mem_ctrls.rdQLenPdf::18                      0                       # What read queue length does an incoming req see
system.mem_ctrls.rdQLenPdf::19                      0                       # What read queue length does an incoming req see
system.mem_ctrls.rdQLenPdf::20                      0                       # What read queue length does an incoming req see
system.mem_ctrls.rdQLenPdf::21                      0                       # What read queue length does an incoming req see
system.mem_ctrls.rdQLenPdf::22                      0                       # What read queue length does an incoming req see
system.mem_ctrls.rdQLenPdf::23                      0                       # What read queue length does an incoming req see
system.mem_ctrls.rdQLenPdf::24                      0                       # What read queue length does an incoming req see
system.mem_ctrls.rdQLenPdf::25                      0                       # What read queue length does an incoming req see
system.mem_ctrls.rdQLenPdf::26                      0                       # What read queue length does an incoming req see
system.mem_ctrls.rdQLenPdf::27                      0                       # What read queue length does an incoming req see
system.mem_ctrls.rdQLenPdf::28                      0                       # What read queue length does an incoming req see
system.mem_ctrls.rdQLenPdf::29                      0                       # What read queue length does an incoming req see
system.mem_ctrls.rdQLenPdf::30                      0                       # What read queue length does an incoming req see
system.mem_ctrls.rdQLenPdf::31                      0                       # What read queue length does an incoming req see
system.mem_ctrls.wrQLenPdf::0                       1                       # What write queue length does an incoming req see
system.mem_ctrls.wrQLenPdf::1                       1                       # What write queue length does an incoming req see
system.mem_ctrls.wrQLenPdf::2                       1                       # What write queue length does an incoming req see
system.mem_ctrls.wrQLenPdf::3                       1                       # What write queue length does an incoming req see
system.mem_ctrls.wrQLenPdf::4                       1                       # What write queue length does an incoming req see
system.mem_ctrls.wrQLenPdf::5                       1                       # What write queue length does an incoming req see
system.mem_ctrls.wrQLenPdf::6                       1                       # What write queue length does an incoming req see
system.mem_ctrls.wrQLenPdf::7                       1                       # What write queue length does an incoming req see
system.mem_ctrls.wrQLenPdf::8                       1                       # What write queue length does an incoming req see
system.mem_ctrls.wrQLenPdf::9                       1                       # What write queue length does an incoming req see
system.mem_ctrls.wrQLenPdf::10                      1                       # What write queue length does an incoming req see
system.mem_ctrls.wrQLenPdf::11                      1                       # What write queue length does an incoming req see
system.mem_ctrls.wrQLenPdf::12                      1                       # What write queue length does an incoming req see
system.mem_ctrls.wrQLenPdf::13                      1                       # What write queue length does an incoming req see
system.mem_ctrls.wrQLenPdf::14                      1                       # What write queue length does an incoming req see
system.mem_ctrls.wrQLenPdf::15                   6927                       # What write queue length does an incoming req see
system.mem_ctrls.wrQLenPdf::16                   7318                       # What write queue length does an incoming req see
system.mem_ctrls.wrQLenPdf::17                 177610                       # What write queue length does an incoming req see
system.mem_ctrls.wrQLenPdf::18                 245117                       # What write queue length does an incoming req see
system.mem_ctrls.wrQLenPdf::19                 264484                       # What write queue length does an incoming req see
system.mem_ctrls.wrQLenPdf::20                 283382                       # What write queue length does an incoming req see
system.mem_ctrls.wrQLenPdf::21                 295769                       # What write queue length does an incoming req see
system.mem_ctrls.wrQLenPdf::22                 298053                       # What write queue length does an incoming req see
system.mem_ctrls.wrQLenPdf::23                 306627                       # What write queue length does an incoming req see
system.mem_ctrls.wrQLenPdf::24                 299636                       # What write queue length does an incoming req see
system.mem_ctrls.wrQLenPdf::25                 317308                       # What write queue length does an incoming req see
system.mem_ctrls.wrQLenPdf::26                 305772                       # What write queue length does an incoming req see
system.mem_ctrls.wrQLenPdf::27                 299959                       # What write queue length does an incoming req see
system.mem_ctrls.wrQLenPdf::28                 295851                       # What write queue length does an incoming req see
system.mem_ctrls.wrQLenPdf::29                 289670                       # What write queue length does an incoming req see
system.mem_ctrls.wrQLenPdf::30                 288576                       # What write queue length does an incoming req see
system.mem_ctrls.wrQLenPdf::31                 288006                       # What write queue length does an incoming req see
system.mem_ctrls.wrQLenPdf::32                 287745                       # What write queue length does an incoming req see
system.mem_ctrls.wrQLenPdf::33                   2036                       # What write queue length does an incoming req see
system.mem_ctrls.wrQLenPdf::34                    328                       # What write queue length does an incoming req see
system.mem_ctrls.wrQLenPdf::35                     56                       # What write queue length does an incoming req see
system.mem_ctrls.wrQLenPdf::36                      4                       # What write queue length does an incoming req see
system.mem_ctrls.wrQLenPdf::37                      1                       # What write queue length does an incoming req see
system.mem_ctrls.wrQLenPdf::38                      0                       # What write queue length does an incoming req see
system.mem_ctrls.wrQLenPdf::39                      0                       # What write queue length does an incoming req see
system.mem_ctrls.wrQLenPdf::40                      0                       # What write queue length does an incoming req see
system.mem_ctrls.wrQLenPdf::41                      0                       # What write queue length does an incoming req see
system.mem_ctrls.wrQLenPdf::42                      0                       # What write queue length does an incoming req see
system.mem_ctrls.wrQLenPdf::43                      0                       # What write queue length does an incoming req see
system.mem_ctrls.wrQLenPdf::44                      0                       # What write queue length does an incoming req see
system.mem_ctrls.wrQLenPdf::45                      0                       # What write queue length does an incoming req see
system.mem_ctrls.wrQLenPdf::46                      0                       # What write queue length does an incoming req see
system.mem_ctrls.wrQLenPdf::47                      0                       # What write queue length does an incoming req see
system.mem_ctrls.wrQLenPdf::48                      0                       # What write queue length does an incoming req see
system.mem_ctrls.wrQLenPdf::49                      0                       # What write queue length does an incoming req see
system.mem_ctrls.wrQLenPdf::50                      0                       # What write queue length does an incoming req see
system.mem_ctrls.wrQLenPdf::51                      0                       # What write queue length does an incoming req see
system.mem_ctrls.wrQLenPdf::52                      0                       # What write queue length does an incoming req see
system.mem_ctrls.wrQLenPdf::53                      0                       # What write queue length does an incoming req see
system.mem_ctrls.wrQLenPdf::54                      0                       # What write queue length does an incoming req see
system.mem_ctrls.wrQLenPdf::55                      0                       # What write queue length does an incoming req see
system.mem_ctrls.wrQLenPdf::56                      0                       # What write queue length does an incoming req see
system.mem_ctrls.wrQLenPdf::57                      0                       # What write queue length does an incoming req see
system.mem_ctrls.wrQLenPdf::58                      0                       # What write queue length does an incoming req see
system.mem_ctrls.wrQLenPdf::59                      0                       # What write queue length does an incoming req see
system.mem_ctrls.wrQLenPdf::60                      0                       # What write queue length does an incoming req see
system.mem_ctrls.wrQLenPdf::61                      0                       # What write queue length does an incoming req see
system.mem_ctrls.wrQLenPdf::62                      0                       # What write queue length does an incoming req see
system.mem_ctrls.wrQLenPdf::63                      0                       # What write queue length does an incoming req see
system.mem_ctrls.bytesPerActivate::samples      7836567                       # Bytes accessed per row activation
system.mem_ctrls.bytesPerActivate::mean    100.122111                       # Bytes accessed per row activation
system.mem_ctrls.bytesPerActivate::gmean    80.462948                       # Bytes accessed per row activation
system.mem_ctrls.bytesPerActivate::stdev   124.641166                       # Bytes accessed per row activation
system.mem_ctrls.bytesPerActivate::0-127      6087493     77.68%     77.68% # Bytes accessed per row activation
system.mem_ctrls.bytesPerActivate::128-255      1395241     17.80%     95.48% # Bytes accessed per row activation
system.mem_ctrls.bytesPerActivate::256-383       149301      1.91%     97.39% # Bytes accessed per row activation
system.mem_ctrls.bytesPerActivate::384-511        37073      0.47%     97.86% # Bytes accessed per row activation
system.mem_ctrls.bytesPerActivate::512-639        49297      0.63%     98.49% # Bytes accessed per row activation
system.mem_ctrls.bytesPerActivate::640-767         9008      0.11%     98.61% # Bytes accessed per row activation
system.mem_ctrls.bytesPerActivate::768-895         3694      0.05%     98.65% # Bytes accessed per row activation
system.mem_ctrls.bytesPerActivate::896-1023         6275      0.08%     98.73% # Bytes accessed per row activation
system.mem_ctrls.bytesPerActivate::1024-1151        99185      1.27%    100.00% # Bytes accessed per row activation
system.mem_ctrls.bytesPerActivate::total      7836567                       # Bytes accessed per row activation
system.mem_ctrls.rdPerTurnAround::samples       284045                       # Reads before turning the bus around for writes
system.mem_ctrls.rdPerTurnAround::mean      27.105839                       # Reads before turning the bus around for writes
system.mem_ctrls.rdPerTurnAround::gmean     20.897027                       # Reads before turning the bus around for writes
system.mem_ctrls.rdPerTurnAround::stdev     80.551498                       # Reads before turning the bus around for writes
system.mem_ctrls.rdPerTurnAround::0-1023       283973     99.97%     99.97% # Reads before turning the bus around for writes
system.mem_ctrls.rdPerTurnAround::1024-2047           68      0.02%    100.00% # Reads before turning the bus around for writes
system.mem_ctrls.rdPerTurnAround::3072-4095            2      0.00%    100.00% # Reads before turning the bus around for writes
system.mem_ctrls.rdPerTurnAround::11264-12287            1      0.00%    100.00% # Reads before turning the bus around for writes
system.mem_ctrls.rdPerTurnAround::30720-31743            1      0.00%    100.00% # Reads before turning the bus around for writes
system.mem_ctrls.rdPerTurnAround::total        284045                       # Reads before turning the bus around for writes
system.mem_ctrls.wrPerTurnAround::samples       284045                       # Writes before turning the bus around for reads
system.mem_ctrls.wrPerTurnAround::mean      16.054622                       # Writes before turning the bus around for reads
system.mem_ctrls.wrPerTurnAround::gmean     16.051468                       # Writes before turning the bus around for reads
system.mem_ctrls.wrPerTurnAround::stdev      0.331220                       # Writes before turning the bus around for reads
system.mem_ctrls.wrPerTurnAround::16           276197     97.24%     97.24% # Writes before turning the bus around for reads
system.mem_ctrls.wrPerTurnAround::17              732      0.26%     97.49% # Writes before turning the bus around for reads
system.mem_ctrls.wrPerTurnAround::18             6590      2.32%     99.81% # Writes before turning the bus around for reads
system.mem_ctrls.wrPerTurnAround::19              504      0.18%     99.99% # Writes before turning the bus around for reads
system.mem_ctrls.wrPerTurnAround::20               20      0.01%    100.00% # Writes before turning the bus around for reads
system.mem_ctrls.wrPerTurnAround::21                1      0.00%    100.00% # Writes before turning the bus around for reads
system.mem_ctrls.wrPerTurnAround::22                1      0.00%    100.00% # Writes before turning the bus around for reads
system.mem_ctrls.wrPerTurnAround::total        284045                       # Writes before turning the bus around for reads
system.mem_ctrls.totQLat                 209826599250                       # Total ticks spent queuing
system.mem_ctrls.totMemAccLat            354189543000                       # Total ticks spent from burst creation until serviced by the DRAM
system.mem_ctrls.totBusLat                38496785000                       # Total ticks spent in databus transfers
system.mem_ctrls.avgQLat                     27252.48                       # Average queueing delay per DRAM burst
system.mem_ctrls.avgBusLat                    5000.00                       # Average bus latency per DRAM burst
system.mem_ctrls.avgMemAccLat                46002.48                       # Average memory access latency per DRAM burst
system.mem_ctrls.avgRdBW                       645.77                       # Average DRAM read bandwidth in MiByte/s
system.mem_ctrls.avgWrBW                       382.48                       # Average achieved write bandwidth in MiByte/s
system.mem_ctrls.avgRdBWSys                    649.15                       # Average system read bandwidth in MiByte/s
system.mem_ctrls.avgWrBWSys                    382.77                       # Average system write bandwidth in MiByte/s
system.mem_ctrls.peakBW                      12800.00                       # Theoretical peak bandwidth in MiByte/s
system.mem_ctrls.busUtil                         8.03                       # Data bus utilization in percentage
system.mem_ctrls.busUtilRead                     5.05                       # Data bus utilization in percentage for reads
system.mem_ctrls.busUtilWrite                    2.99                       # Data bus utilization in percentage for writes
system.mem_ctrls.avgRdQLen                       1.30                       # Average read queue length when enqueuing
system.mem_ctrls.avgWrQLen                      25.30                       # Average write queue length when enqueuing
system.mem_ctrls.readRowHits                  2274329                       # Number of row buffer hits during reads
system.mem_ctrls.writeRowHits                 2148695                       # Number of row buffer hits during writes
system.mem_ctrls.readRowHitRate                 29.54                       # Row buffer hit rate for reads
system.mem_ctrls.writeRowHitRate                47.12                       # Row buffer hit rate for writes
system.mem_ctrls.avgGap                      62020.51                       # Average gap between requests
system.mem_ctrls.pageHitRate                    36.08                       # Row buffer hit rate, read and write combined
system.mem_ctrls.memoryStateTime::IDLE     7403878500                       # Time in different power states
system.mem_ctrls.memoryStateTime::REF     25480260000                       # Time in different power states
system.mem_ctrls.memoryStateTime::PRE_PDN            0                       # Time in different power states
system.mem_ctrls.memoryStateTime::ACT    730176421500                       # Time in different power states
system.mem_ctrls.memoryStateTime::ACT_PDN            0                       # Time in different power states
system.membus.throughput                   1031916470                       # Throughput (bytes/s)
system.membus.trans_dist::ReadReq             4976344                       # Transaction distribution
system.membus.trans_dist::ReadResp            4976344                       # Transaction distribution
system.membus.trans_dist::Writeback           4563646                       # Transaction distribution
system.membus.trans_dist::ReadExReq           2763384                       # Transaction distribution
system.membus.trans_dist::ReadExResp          2763384                       # Transaction distribution
system.membus.pkt_count_system.cpu.icache.mem_side::system.mem_ctrls.port         1828                       # Packet count per connected master and slave (bytes)
system.membus.pkt_count_system.cpu.dcache.mem_side::system.mem_ctrls.port     20041274                       # Packet count per connected master and slave (bytes)
system.membus.pkt_count::total               20043102                       # Packet count per connected master and slave (bytes)
system.membus.tot_pkt_size_system.cpu.icache.mem_side::system.mem_ctrls.port        58496                       # Cumulative packet size per connected master and slave (bytes)
system.membus.tot_pkt_size_system.cpu.dcache.mem_side::system.mem_ctrls.port    787357440                       # Cumulative packet size per connected master and slave (bytes)
system.membus.tot_pkt_size::total           787415936                       # Cumulative packet size per connected master and slave (bytes)
system.membus.data_through_bus              787415936                       # Total data (bytes)
system.membus.snoop_data_through_bus                0                       # Total snoop data (bytes)
system.membus.reqLayer0.occupancy         51171285000                       # Layer occupancy (ticks)
system.membus.reqLayer0.utilization               6.7                       # Layer utilization (%)
system.membus.respLayer1.occupancy            8618497                       # Layer occupancy (ticks)
system.membus.respLayer1.utilization              0.0                       # Layer utilization (%)
system.membus.respLayer2.occupancy        72506464250                       # Layer occupancy (ticks)
system.membus.respLayer2.utilization              9.5                       # Layer utilization (%)
system.cpu_voltage_domain.voltage                   1                       # Voltage in Volts
system.cpu_clk_domain.clock                       500                       # Clock period in ticks
system.cpu.branchPred.lookups               140579411                       # Number of BP lookups
system.cpu.branchPred.condPredicted         134317587                       # Number of conditional branches predicted
system.cpu.branchPred.condIncorrect          10928871                       # Number of conditional branches incorrect
system.cpu.branchPred.BTBLookups                    0                       # Number of BTB lookups
system.cpu.branchPred.BTBHits                       0                       # Number of BTB hits
system.cpu.branchPred.BTBCorrect                    0                       # Number of correct BTB predictions (this stat may not work properly.
system.cpu.branchPred.BTBHitPct                   nan                       # BTB Hit Percentage
system.cpu.branchPred.usedRAS                 1729308                       # Number of times the RAS was used to get a target.
system.cpu.branchPred.RASInCorrect                  0                       # Number of incorrect RAS predictions.
system.cpu.dtb.fetch_hits                           0                       # ITB hits
system.cpu.dtb.fetch_misses                         0                       # ITB misses
system.cpu.dtb.fetch_acv                            0                       # ITB acv
system.cpu.dtb.fetch_accesses                       0                       # ITB accesses
system.cpu.dtb.read_hits                    204975965                       # DTB read hits
system.cpu.dtb.read_misses                     999949                       # DTB read misses
system.cpu.dtb.read_acv                             0                       # DTB read access violations
system.cpu.dtb.read_accesses                205975914                       # DTB read accesses
system.cpu.dtb.write_hits                   148540114                       # DTB write hits
system.cpu.dtb.write_misses                   1675271                       # DTB write misses
system.cpu.dtb.write_acv                            0                       # DTB write access violations
system.cpu.dtb.write_accesses               150215385                       # DTB write accesses
system.cpu.dtb.data_hits                    353516079                       # DTB hits
system.cpu.dtb.data_misses                    2675220                       # DTB misses
system.cpu.dtb.data_acv                             0                       # DTB access violations
system.cpu.dtb.data_accesses                356191299                       # DTB accesses
system.cpu.itb.fetch_hits                    25445366                       # ITB hits
system.cpu.itb.fetch_misses                        38                       # ITB misses
system.cpu.itb.fetch_acv                            0                       # ITB acv
system.cpu.itb.fetch_accesses                25445404                       # ITB accesses
system.cpu.itb.read_hits                            0                       # DTB read hits
system.cpu.itb.read_misses                          0                       # DTB read misses
system.cpu.itb.read_acv                             0                       # DTB read access violations
system.cpu.itb.read_accesses                        0                       # DTB read accesses
system.cpu.itb.write_hits                           0                       # DTB write hits
system.cpu.itb.write_misses                         0                       # DTB write misses
system.cpu.itb.write_acv                            0                       # DTB write access violations
system.cpu.itb.write_accesses                       0                       # DTB write accesses
system.cpu.itb.data_hits                            0                       # DTB hits
system.cpu.itb.data_misses                          0                       # DTB misses
system.cpu.itb.data_acv                             0                       # DTB access violations
system.cpu.itb.data_accesses                        0                       # DTB accesses
system.cpu.workload.num_syscalls                   33                       # Number of system calls
system.cpu.numCycles                       1526123401                       # number of cpu cycles simulated
system.cpu.numWorkItemsStarted                      0                       # number of work items this cpu started
system.cpu.numWorkItemsCompleted                    0                       # number of work items this cpu completed
system.cpu.branch_predictor.predictedTaken    119951905                       # Number of Branches Predicted As Taken (True).
system.cpu.branch_predictor.predictedNotTaken     20627506                       # Number of Branches Predicted As Not Taken (False).
system.cpu.regfile_manager.intRegFileReads   1011718370                       # Number of Reads from Int. Register File
system.cpu.regfile_manager.intRegFileWrites    710130765                       # Number of Writes to Int. Register File
system.cpu.regfile_manager.intRegFileAccesses   1721849135                       # Total Accesses (Read+Write) to the Int. Register File
system.cpu.regfile_manager.floatRegFileReads          150                       # Number of Reads from FP Register File
system.cpu.regfile_manager.floatRegFileWrites          145                       # Number of Writes to FP Register File
system.cpu.regfile_manager.floatRegFileAccesses          295                       # Total Accesses (Read+Write) to the FP Register File
system.cpu.regfile_manager.regForwards      337787923                       # Number of Registers Read Through Forwarding Logic
system.cpu.agen_unit.agens                  359191332                       # Number of Address Generations
system.cpu.execution_unit.predictedTakenIncorrect      1250852                       # Number of Branches Incorrectly Predicted As Taken.
system.cpu.execution_unit.predictedNotTakenIncorrect      7002704                       # Number of Branches Incorrectly Predicted As Not Taken).
system.cpu.execution_unit.mispredicted        8253556                       # Number of Branches Incorrectly Predicted
system.cpu.execution_unit.predicted         128968260                       # Number of Branches Incorrectly Predicted
system.cpu.execution_unit.mispredictPct      6.014755                       # Percentage of Incorrect Branches Predicts
system.cpu.execution_unit.executions        648075202                       # Number of Instructions Executed.
system.cpu.mult_div_unit.multiplies               381                       # Number of Multipy Operations Executed
system.cpu.mult_div_unit.divides                    0                       # Number of Divide Operations Executed
system.cpu.contextSwitches                          1                       # Number of context switches
system.cpu.threadCycles                     898030030                       # Total Number of Cycles A Thread Was Active in CPU (Per-Thread)
system.cpu.smtCycles                                0                       # Total number of cycles that the CPU was in SMT-mode
system.cpu.timesIdled                         8186627                       # Number of times that the entire CPU went into an idle state and unscheduled itself
system.cpu.idleCycles                       822393992                       # Number of cycles cpu's stages were not processed
system.cpu.runCycles                        703729409                       # Number of cycles cpu stages are processed.
system.cpu.activity                         46.112222                       # Percentage of cycles cpu is active
system.cpu.comLoads                         204226654                       # Number of Load instructions committed
system.cpu.comStores                        148539535                       # Number of Store instructions committed
system.cpu.comBranches                      136517689                       # Number of Branches instructions committed
system.cpu.comNops                            6115632                       # Number of Nop instructions committed
system.cpu.comNonSpec                              33                       # Number of Non-Speculative instructions committed
system.cpu.comInts                          504600229                       # Number of Integer instructions committed
system.cpu.comFloats                               86                       # Number of Floating Point instructions committed
system.cpu.committedInsts                  1000000001                       # Number of Instructions committed (Per-Thread)
system.cpu.committedOps                    1000000001                       # Number of Ops committed (Per-Thread)
system.cpu.smtCommittedInsts                        0                       # Number of SMT Instructions committed (Per-Thread)
system.cpu.committedInsts_total            1000000001                       # Number of Instructions committed (Total)
system.cpu.cpi                               1.526123                       # CPI: Cycles Per Instruction (Per-Thread)
system.cpu.smt_cpi                                nan                       # CPI: Total SMT-CPI
system.cpu.cpi_total                         1.526123                       # CPI: Total CPI of All Threads
system.cpu.ipc                               0.655255                       # IPC: Instructions Per Cycle (Per-Thread)
system.cpu.smt_ipc                                nan                       # IPC: Total SMT-IPC
system.cpu.ipc_total                         0.655255                       # IPC: Total IPC of All Threads
system.cpu.stage0.idleCycles               1003915475                       # Number of cycles 0 instructions are processed.
system.cpu.stage0.runCycles                 522207926                       # Number of cycles 1+ instructions are processed.
system.cpu.stage0.utilization               34.217936                       # Percentage of cycles stage was utilized (processing insts).
system.cpu.stage1.idleCycles               1020288050                       # Number of cycles 0 instructions are processed.
system.cpu.stage1.runCycles                 505835351                       # Number of cycles 1+ instructions are processed.
system.cpu.stage1.utilization               33.145115                       # Percentage of cycles stage was utilized (processing insts).
system.cpu.stage2.idleCycles               1018571937                       # Number of cycles 0 instructions are processed.
system.cpu.stage2.runCycles                 507551464                       # Number of cycles 1+ instructions are processed.
system.cpu.stage2.utilization               33.257564                       # Percentage of cycles stage was utilized (processing insts).
system.cpu.stage3.idleCycles               1327058572                       # Number of cycles 0 instructions are processed.
system.cpu.stage3.runCycles                 199064829                       # Number of cycles 1+ instructions are processed.
system.cpu.stage3.utilization               13.043823                       # Percentage of cycles stage was utilized (processing insts).
system.cpu.stage4.idleCycles               1003721890                       # Number of cycles 0 instructions are processed.
system.cpu.stage4.runCycles                 522401511                       # Number of cycles 1+ instructions are processed.
system.cpu.stage4.utilization               34.230621                       # Percentage of cycles stage was utilized (processing insts).
system.cpu.icache.tags.replacements               422                       # number of replacements
system.cpu.icache.tags.tagsinuse           452.731668                       # Cycle average of tags in use
system.cpu.icache.tags.total_refs            25444244                       # Total number of references to valid blocks.
system.cpu.icache.tags.sampled_refs               914                       # Sample count of references to valid blocks.
system.cpu.icache.tags.avg_refs          27838.341357                       # Average number of references to valid blocks.
system.cpu.icache.tags.warmup_cycle                 0                       # Cycle when the warmup percentage was hit.
system.cpu.icache.tags.occ_blocks::cpu.inst   452.731668                       # Average occupied blocks per requestor
system.cpu.icache.tags.occ_percent::cpu.inst     0.884242                       # Average percentage of cache occupancy
system.cpu.icache.tags.occ_percent::total     0.884242                       # Average percentage of cache occupancy
system.cpu.icache.tags.occ_task_id_blocks::1024          492                       # Occupied blocks per task id
system.cpu.icache.tags.age_task_id_blocks_1024::2           30                       # Occupied blocks per task id
system.cpu.icache.tags.age_task_id_blocks_1024::4          462                       # Occupied blocks per task id
system.cpu.icache.tags.occ_task_id_percent::1024     0.960938                       # Percentage of cache occupancy per task id
system.cpu.icache.tags.tag_accesses          50891644                       # Number of tag accesses
system.cpu.icache.tags.data_accesses         50891644                       # Number of data accesses
system.cpu.icache.ReadReq_hits::cpu.inst     25444244                       # number of ReadReq hits
system.cpu.icache.ReadReq_hits::total        25444244                       # number of ReadReq hits
system.cpu.icache.demand_hits::cpu.inst      25444244                       # number of demand (read+write) hits
system.cpu.icache.demand_hits::total         25444244                       # number of demand (read+write) hits
system.cpu.icache.overall_hits::cpu.inst     25444244                       # number of overall hits
system.cpu.icache.overall_hits::total        25444244                       # number of overall hits
system.cpu.icache.ReadReq_misses::cpu.inst         1121                       # number of ReadReq misses
system.cpu.icache.ReadReq_misses::total          1121                       # number of ReadReq misses
system.cpu.icache.demand_misses::cpu.inst         1121                       # number of demand (read+write) misses
system.cpu.icache.demand_misses::total           1121                       # number of demand (read+write) misses
system.cpu.icache.overall_misses::cpu.inst         1121                       # number of overall misses
system.cpu.icache.overall_misses::total          1121                       # number of overall misses
system.cpu.icache.ReadReq_miss_latency::cpu.inst     55236246                       # number of ReadReq miss cycles
system.cpu.icache.ReadReq_miss_latency::total     55236246                       # number of ReadReq miss cycles
system.cpu.icache.demand_miss_latency::cpu.inst     55236246                       # number of demand (read+write) miss cycles
system.cpu.icache.demand_miss_latency::total     55236246                       # number of demand (read+write) miss cycles
system.cpu.icache.overall_miss_latency::cpu.inst     55236246                       # number of overall miss cycles
system.cpu.icache.overall_miss_latency::total     55236246                       # number of overall miss cycles
system.cpu.icache.ReadReq_accesses::cpu.inst     25445365                       # number of ReadReq accesses(hits+misses)
system.cpu.icache.ReadReq_accesses::total     25445365                       # number of ReadReq accesses(hits+misses)
system.cpu.icache.demand_accesses::cpu.inst     25445365                       # number of demand (read+write) accesses
system.cpu.icache.demand_accesses::total     25445365                       # number of demand (read+write) accesses
system.cpu.icache.overall_accesses::cpu.inst     25445365                       # number of overall (read+write) accesses
system.cpu.icache.overall_accesses::total     25445365                       # number of overall (read+write) accesses
system.cpu.icache.ReadReq_miss_rate::cpu.inst     0.000044                       # miss rate for ReadReq accesses
system.cpu.icache.ReadReq_miss_rate::total     0.000044                       # miss rate for ReadReq accesses
system.cpu.icache.demand_miss_rate::cpu.inst     0.000044                       # miss rate for demand accesses
system.cpu.icache.demand_miss_rate::total     0.000044                       # miss rate for demand accesses
system.cpu.icache.overall_miss_rate::cpu.inst     0.000044                       # miss rate for overall accesses
system.cpu.icache.overall_miss_rate::total     0.000044                       # miss rate for overall accesses
system.cpu.icache.ReadReq_avg_miss_latency::cpu.inst 49274.082070                       # average ReadReq miss latency
system.cpu.icache.ReadReq_avg_miss_latency::total 49274.082070                       # average ReadReq miss latency
system.cpu.icache.demand_avg_miss_latency::cpu.inst 49274.082070                       # average overall miss latency
system.cpu.icache.demand_avg_miss_latency::total 49274.082070                       # average overall miss latency
system.cpu.icache.overall_avg_miss_latency::cpu.inst 49274.082070                       # average overall miss latency
system.cpu.icache.overall_avg_miss_latency::total 49274.082070                       # average overall miss latency
system.cpu.icache.blocked_cycles::no_mshrs          113                       # number of cycles access was blocked
system.cpu.icache.blocked_cycles::no_targets           49                       # number of cycles access was blocked
system.cpu.icache.blocked::no_mshrs                 2                       # number of cycles access was blocked
system.cpu.icache.blocked::no_targets               1                       # number of cycles access was blocked
system.cpu.icache.avg_blocked_cycles::no_mshrs    56.500000                       # average number of cycles each access was blocked
system.cpu.icache.avg_blocked_cycles::no_targets           49                       # average number of cycles each access was blocked
system.cpu.icache.fast_writes                       0                       # number of fast writes performed
system.cpu.icache.cache_copies                      0                       # number of cache copies performed
system.cpu.icache.ReadReq_mshr_hits::cpu.inst          207                       # number of ReadReq MSHR hits
system.cpu.icache.ReadReq_mshr_hits::total          207                       # number of ReadReq MSHR hits
system.cpu.icache.demand_mshr_hits::cpu.inst          207                       # number of demand (read+write) MSHR hits
system.cpu.icache.demand_mshr_hits::total          207                       # number of demand (read+write) MSHR hits
system.cpu.icache.overall_mshr_hits::cpu.inst          207                       # number of overall MSHR hits
system.cpu.icache.overall_mshr_hits::total          207                       # number of overall MSHR hits
system.cpu.icache.ReadReq_mshr_misses::cpu.inst          914                       # number of ReadReq MSHR misses
system.cpu.icache.ReadReq_mshr_misses::total          914                       # number of ReadReq MSHR misses
system.cpu.icache.demand_mshr_misses::cpu.inst          914                       # number of demand (read+write) MSHR misses
system.cpu.icache.demand_mshr_misses::total          914                       # number of demand (read+write) MSHR misses
system.cpu.icache.overall_mshr_misses::cpu.inst          914                       # number of overall MSHR misses
system.cpu.icache.overall_mshr_misses::total          914                       # number of overall MSHR misses
system.cpu.icache.ReadReq_mshr_miss_latency::cpu.inst     44186503                       # number of ReadReq MSHR miss cycles
system.cpu.icache.ReadReq_mshr_miss_latency::total     44186503                       # number of ReadReq MSHR miss cycles
system.cpu.icache.demand_mshr_miss_latency::cpu.inst     44186503                       # number of demand (read+write) MSHR miss cycles
system.cpu.icache.demand_mshr_miss_latency::total     44186503                       # number of demand (read+write) MSHR miss cycles
system.cpu.icache.overall_mshr_miss_latency::cpu.inst     44186503                       # number of overall MSHR miss cycles
system.cpu.icache.overall_mshr_miss_latency::total     44186503                       # number of overall MSHR miss cycles
system.cpu.icache.ReadReq_mshr_miss_rate::cpu.inst     0.000036                       # mshr miss rate for ReadReq accesses
system.cpu.icache.ReadReq_mshr_miss_rate::total     0.000036                       # mshr miss rate for ReadReq accesses
system.cpu.icache.demand_mshr_miss_rate::cpu.inst     0.000036                       # mshr miss rate for demand accesses
system.cpu.icache.demand_mshr_miss_rate::total     0.000036                       # mshr miss rate for demand accesses
system.cpu.icache.overall_mshr_miss_rate::cpu.inst     0.000036                       # mshr miss rate for overall accesses
system.cpu.icache.overall_mshr_miss_rate::total     0.000036                       # mshr miss rate for overall accesses
system.cpu.icache.ReadReq_avg_mshr_miss_latency::cpu.inst 48344.095186                       # average ReadReq mshr miss latency
system.cpu.icache.ReadReq_avg_mshr_miss_latency::total 48344.095186                       # average ReadReq mshr miss latency
system.cpu.icache.demand_avg_mshr_miss_latency::cpu.inst 48344.095186                       # average overall mshr miss latency
system.cpu.icache.demand_avg_mshr_miss_latency::total 48344.095186                       # average overall mshr miss latency
system.cpu.icache.overall_avg_mshr_miss_latency::cpu.inst 48344.095186                       # average overall mshr miss latency
system.cpu.icache.overall_avg_mshr_miss_latency::total 48344.095186                       # average overall mshr miss latency
system.cpu.icache.no_allocate_misses                0                       # Number of misses that were no-allocate
system.cpu.dcache.tags.replacements           7737790                       # number of replacements
system.cpu.dcache.tags.tagsinuse          1021.976801                       # Cycle average of tags in use
system.cpu.dcache.tags.total_refs           342489027                       # Total number of references to valid blocks.
system.cpu.dcache.tags.sampled_refs           7738814                       # Sample count of references to valid blocks.
system.cpu.dcache.tags.avg_refs             44.256010                       # Average number of references to valid blocks.
system.cpu.dcache.tags.warmup_cycle        1900985000                       # Cycle when the warmup percentage was hit.
system.cpu.dcache.tags.occ_blocks::cpu.data  1021.976801                       # Average occupied blocks per requestor
system.cpu.dcache.tags.occ_percent::cpu.data     0.998024                       # Average percentage of cache occupancy
system.cpu.dcache.tags.occ_percent::total     0.998024                       # Average percentage of cache occupancy
system.cpu.dcache.tags.occ_task_id_blocks::1024         1024                       # Occupied blocks per task id
system.cpu.dcache.tags.age_task_id_blocks_1024::0           33                       # Occupied blocks per task id
system.cpu.dcache.tags.age_task_id_blocks_1024::1          304                       # Occupied blocks per task id
system.cpu.dcache.tags.age_task_id_blocks_1024::2          687                       # Occupied blocks per task id
system.cpu.dcache.tags.occ_task_id_percent::1024            1                       # Percentage of cache occupancy per task id
system.cpu.dcache.tags.tag_accesses         713271194                       # Number of tag accesses
system.cpu.dcache.tags.data_accesses        713271194                       # Number of data accesses
system.cpu.dcache.ReadReq_hits::cpu.data    198587815                       # number of ReadReq hits
system.cpu.dcache.ReadReq_hits::total       198587815                       # number of ReadReq hits
system.cpu.dcache.WriteReq_hits::cpu.data    143901124                       # number of WriteReq hits
system.cpu.dcache.WriteReq_hits::total      143901124                       # number of WriteReq hits
system.cpu.dcache.LoadLockedReq_hits::cpu.data           42                       # number of LoadLockedReq hits
system.cpu.dcache.LoadLockedReq_hits::total           42                       # number of LoadLockedReq hits
system.cpu.dcache.StoreCondReq_hits::cpu.data           46                       # number of StoreCondReq hits
system.cpu.dcache.StoreCondReq_hits::total           46                       # number of StoreCondReq hits
system.cpu.dcache.demand_hits::cpu.data     342488939                       # number of demand (read+write) hits
system.cpu.dcache.demand_hits::total        342488939                       # number of demand (read+write) hits
system.cpu.dcache.overall_hits::cpu.data    342488939                       # number of overall hits
system.cpu.dcache.overall_hits::total       342488939                       # number of overall hits
system.cpu.dcache.ReadReq_misses::cpu.data      5638794                       # number of ReadReq misses
system.cpu.dcache.ReadReq_misses::total       5638794                       # number of ReadReq misses
system.cpu.dcache.WriteReq_misses::cpu.data      4638365                       # number of WriteReq misses
system.cpu.dcache.WriteReq_misses::total      4638365                       # number of WriteReq misses
system.cpu.dcache.LoadLockedReq_misses::cpu.data            4                       # number of LoadLockedReq misses
system.cpu.dcache.LoadLockedReq_misses::total            4                       # number of LoadLockedReq misses
system.cpu.dcache.demand_misses::cpu.data     10277159                       # number of demand (read+write) misses
system.cpu.dcache.demand_misses::total       10277159                       # number of demand (read+write) misses
system.cpu.dcache.overall_misses::cpu.data     10277159                       # number of overall misses
system.cpu.dcache.overall_misses::total      10277159                       # number of overall misses
system.cpu.dcache.ReadReq_miss_latency::cpu.data 385991249500                       # number of ReadReq miss cycles
system.cpu.dcache.ReadReq_miss_latency::total 385991249500                       # number of ReadReq miss cycles
system.cpu.dcache.WriteReq_miss_latency::cpu.data 322472348500                       # number of WriteReq miss cycles
system.cpu.dcache.WriteReq_miss_latency::total 322472348500                       # number of WriteReq miss cycles
system.cpu.dcache.LoadLockedReq_miss_latency::cpu.data       338750                       # number of LoadLockedReq miss cycles
system.cpu.dcache.LoadLockedReq_miss_latency::total       338750                       # number of LoadLockedReq miss cycles
system.cpu.dcache.demand_miss_latency::cpu.data 708463598000                       # number of demand (read+write) miss cycles
system.cpu.dcache.demand_miss_latency::total 708463598000                       # number of demand (read+write) miss cycles
system.cpu.dcache.overall_miss_latency::cpu.data 708463598000                       # number of overall miss cycles
system.cpu.dcache.overall_miss_latency::total 708463598000                       # number of overall miss cycles
system.cpu.dcache.ReadReq_accesses::cpu.data    204226609                       # number of ReadReq accesses(hits+misses)
system.cpu.dcache.ReadReq_accesses::total    204226609                       # number of ReadReq accesses(hits+misses)
system.cpu.dcache.WriteReq_accesses::cpu.data    148539489                       # number of WriteReq accesses(hits+misses)
system.cpu.dcache.WriteReq_accesses::total    148539489                       # number of WriteReq accesses(hits+misses)
system.cpu.dcache.LoadLockedReq_accesses::cpu.data           46                       # number of LoadLockedReq accesses(hits+misses)
system.cpu.dcache.LoadLockedReq_accesses::total           46                       # number of LoadLockedReq accesses(hits+misses)
system.cpu.dcache.StoreCondReq_accesses::cpu.data           46                       # number of StoreCondReq accesses(hits+misses)
system.cpu.dcache.StoreCondReq_accesses::total           46                       # number of StoreCondReq accesses(hits+misses)
system.cpu.dcache.demand_accesses::cpu.data    352766098                       # number of demand (read+write) accesses
system.cpu.dcache.demand_accesses::total    352766098                       # number of demand (read+write) accesses
system.cpu.dcache.overall_accesses::cpu.data    352766098                       # number of overall (read+write) accesses
system.cpu.dcache.overall_accesses::total    352766098                       # number of overall (read+write) accesses
system.cpu.dcache.ReadReq_miss_rate::cpu.data     0.027610                       # miss rate for ReadReq accesses
system.cpu.dcache.ReadReq_miss_rate::total     0.027610                       # miss rate for ReadReq accesses
system.cpu.dcache.WriteReq_miss_rate::cpu.data     0.031226                       # miss rate for WriteReq accesses
system.cpu.dcache.WriteReq_miss_rate::total     0.031226                       # miss rate for WriteReq accesses
system.cpu.dcache.LoadLockedReq_miss_rate::cpu.data     0.086957                       # miss rate for LoadLockedReq accesses
system.cpu.dcache.LoadLockedReq_miss_rate::total     0.086957                       # miss rate for LoadLockedReq accesses
system.cpu.dcache.demand_miss_rate::cpu.data     0.029133                       # miss rate for demand accesses
system.cpu.dcache.demand_miss_rate::total     0.029133                       # miss rate for demand accesses
system.cpu.dcache.overall_miss_rate::cpu.data     0.029133                       # miss rate for overall accesses
system.cpu.dcache.overall_miss_rate::total     0.029133                       # miss rate for overall accesses
system.cpu.dcache.ReadReq_avg_miss_latency::cpu.data 68452.802053                       # average ReadReq miss latency
system.cpu.dcache.ReadReq_avg_miss_latency::total 68452.802053                       # average ReadReq miss latency
system.cpu.dcache.WriteReq_avg_miss_latency::cpu.data 69522.848784                       # average WriteReq miss latency
system.cpu.dcache.WriteReq_avg_miss_latency::total 69522.848784                       # average WriteReq miss latency
system.cpu.dcache.LoadLockedReq_avg_miss_latency::cpu.data 84687.500000                       # average LoadLockedReq miss latency
system.cpu.dcache.LoadLockedReq_avg_miss_latency::total 84687.500000                       # average LoadLockedReq miss latency
system.cpu.dcache.demand_avg_miss_latency::cpu.data 68935.743623                       # average overall miss latency
system.cpu.dcache.demand_avg_miss_latency::total 68935.743623                       # average overall miss latency
system.cpu.dcache.overall_avg_miss_latency::cpu.data 68935.743623                       # average overall miss latency
system.cpu.dcache.overall_avg_miss_latency::total 68935.743623                       # average overall miss latency
system.cpu.dcache.blocked_cycles::no_mshrs     36389732                       # number of cycles access was blocked
system.cpu.dcache.blocked_cycles::no_targets         1563                       # number of cycles access was blocked
system.cpu.dcache.blocked::no_mshrs            938268                       # number of cycles access was blocked
system.cpu.dcache.blocked::no_targets              30                       # number of cycles access was blocked
system.cpu.dcache.avg_blocked_cycles::no_mshrs    38.783942                       # average number of cycles each access was blocked
system.cpu.dcache.avg_blocked_cycles::no_targets    52.100000                       # average number of cycles each access was blocked
system.cpu.dcache.fast_writes                       0                       # number of fast writes performed
system.cpu.dcache.cache_copies                      0                       # number of cache copies performed
system.cpu.dcache.writebacks::writebacks      4563646                       # number of writebacks
system.cpu.dcache.writebacks::total           4563646                       # number of writebacks
system.cpu.dcache.ReadReq_mshr_hits::cpu.data       663303                       # number of ReadReq MSHR hits
system.cpu.dcache.ReadReq_mshr_hits::total       663303                       # number of ReadReq MSHR hits
system.cpu.dcache.WriteReq_mshr_hits::cpu.data      1875046                       # number of WriteReq MSHR hits
system.cpu.dcache.WriteReq_mshr_hits::total      1875046                       # number of WriteReq MSHR hits
system.cpu.dcache.demand_mshr_hits::cpu.data      2538349                       # number of demand (read+write) MSHR hits
system.cpu.dcache.demand_mshr_hits::total      2538349                       # number of demand (read+write) MSHR hits
system.cpu.dcache.overall_mshr_hits::cpu.data      2538349                       # number of overall MSHR hits
system.cpu.dcache.overall_mshr_hits::total      2538349                       # number of overall MSHR hits
system.cpu.dcache.ReadReq_mshr_misses::cpu.data      4975491                       # number of ReadReq MSHR misses
system.cpu.dcache.ReadReq_mshr_misses::total      4975491                       # number of ReadReq MSHR misses
system.cpu.dcache.WriteReq_mshr_misses::cpu.data      2763319                       # number of WriteReq MSHR misses
system.cpu.dcache.WriteReq_mshr_misses::total      2763319                       # number of WriteReq MSHR misses
system.cpu.dcache.LoadLockedReq_mshr_misses::cpu.data            4                       # number of LoadLockedReq MSHR misses
system.cpu.dcache.LoadLockedReq_mshr_misses::total            4                       # number of LoadLockedReq MSHR misses
system.cpu.dcache.demand_mshr_misses::cpu.data      7738810                       # number of demand (read+write) MSHR misses
system.cpu.dcache.demand_mshr_misses::total      7738810                       # number of demand (read+write) MSHR misses
system.cpu.dcache.overall_mshr_misses::cpu.data      7738810                       # number of overall MSHR misses
system.cpu.dcache.overall_mshr_misses::total      7738810                       # number of overall MSHR misses
system.cpu.dcache.ReadReq_mshr_miss_latency::cpu.data 325575874000                       # number of ReadReq MSHR miss cycles
system.cpu.dcache.ReadReq_mshr_miss_latency::total 325575874000                       # number of ReadReq MSHR miss cycles
system.cpu.dcache.WriteReq_mshr_miss_latency::cpu.data 204126634000                       # number of WriteReq MSHR miss cycles
system.cpu.dcache.WriteReq_mshr_miss_latency::total 204126634000                       # number of WriteReq MSHR miss cycles
system.cpu.dcache.LoadLockedReq_mshr_miss_latency::cpu.data       325750                       # number of LoadLockedReq MSHR miss cycles
system.cpu.dcache.LoadLockedReq_mshr_miss_latency::total       325750                       # number of LoadLockedReq MSHR miss cycles
system.cpu.dcache.demand_mshr_miss_latency::cpu.data 529702508000                       # number of demand (read+write) MSHR miss cycles
system.cpu.dcache.demand_mshr_miss_latency::total 529702508000                       # number of demand (read+write) MSHR miss cycles
system.cpu.dcache.overall_mshr_miss_latency::cpu.data 529702508000                       # number of overall MSHR miss cycles
system.cpu.dcache.overall_mshr_miss_latency::total 529702508000                       # number of overall MSHR miss cycles
system.cpu.dcache.ReadReq_mshr_miss_rate::cpu.data     0.024363                       # mshr miss rate for ReadReq accesses
system.cpu.dcache.ReadReq_mshr_miss_rate::total     0.024363                       # mshr miss rate for ReadReq accesses
system.cpu.dcache.WriteReq_mshr_miss_rate::cpu.data     0.018603                       # mshr miss rate for WriteReq accesses
system.cpu.dcache.WriteReq_mshr_miss_rate::total     0.018603                       # mshr miss rate for WriteReq accesses
system.cpu.dcache.LoadLockedReq_mshr_miss_rate::cpu.data     0.086957                       # mshr miss rate for LoadLockedReq accesses
system.cpu.dcache.LoadLockedReq_mshr_miss_rate::total     0.086957                       # mshr miss rate for LoadLockedReq accesses
system.cpu.dcache.demand_mshr_miss_rate::cpu.data     0.021938                       # mshr miss rate for demand accesses
system.cpu.dcache.demand_mshr_miss_rate::total     0.021938                       # mshr miss rate for demand accesses
system.cpu.dcache.overall_mshr_miss_rate::cpu.data     0.021938                       # mshr miss rate for overall accesses
system.cpu.dcache.overall_mshr_miss_rate::total     0.021938                       # mshr miss rate for overall accesses
system.cpu.dcache.ReadReq_avg_mshr_miss_latency::cpu.data 65435.928635                       # average ReadReq mshr miss latency
system.cpu.dcache.ReadReq_avg_mshr_miss_latency::total 65435.928635                       # average ReadReq mshr miss latency
system.cpu.dcache.WriteReq_avg_mshr_miss_latency::cpu.data 73870.093898                       # average WriteReq mshr miss latency
system.cpu.dcache.WriteReq_avg_mshr_miss_latency::total 73870.093898                       # average WriteReq mshr miss latency
system.cpu.dcache.LoadLockedReq_avg_mshr_miss_latency::cpu.data 81437.500000                       # average LoadLockedReq mshr miss latency
system.cpu.dcache.LoadLockedReq_avg_mshr_miss_latency::total 81437.500000                       # average LoadLockedReq mshr miss latency
system.cpu.dcache.demand_avg_mshr_miss_latency::cpu.data 68447.540126                       # average overall mshr miss latency
system.cpu.dcache.demand_avg_mshr_miss_latency::total 68447.540126                       # average overall mshr miss latency
system.cpu.dcache.overall_avg_mshr_miss_latency::cpu.data 68447.540126                       # average overall mshr miss latency
system.cpu.dcache.overall_avg_mshr_miss_latency::total 68447.540126                       # average overall mshr miss latency
system.cpu.dcache.no_allocate_misses                0                       # Number of misses that were no-allocate

---------- End Simulation Statistics   ----------
